<edges>
<edge from="9_30" to="8_30" id="9_30to8_30" type="2L25"/>
<edge from="9_31" to="9_30" id="9_31to9_30" type="4L25"/>
<edge from="9_32" to="9_31" id="9_32to9_31" type="4L25"/>
<edge from="9_32" to="8_32" id="9_32to8_32" type="2L25"/>
<edge from="9_33" to="9_32" id="9_33to9_32" type="4L25"/>
<edge from="9_34" to="9_33" id="9_34to9_33" type="4L25"/>
<edge from="9_34" to="8_34" id="9_34to8_34" type="2L25"/>
<edge from="9_35" to="9_34" id="9_35to9_34" type="4L25"/>
<edge from="9_36" to="9_35" id="9_36to9_35" type="4L25"/>
<edge from="9_36" to="8_36" id="9_36to8_36" type="2L25"/>
<edge from="9_37" to="9_36" id="9_37to9_36" type="4L25"/>
<edge from="9_38" to="9_37" id="9_38to9_37" type="4L25"/>
<edge from="9_38" to="8_38" id="9_38to8_38" type="2L25"/>
<edge from="9_39" to="9_38" id="9_39to9_38" type="4L25"/>
<edge from="9_40" to="9_39" id="9_40to9_39" type="4L25"/>
<edge from="9_40" to="8_40" id="9_40to8_40" type="2L25"/>
<edge from="9_41" to="9_40" id="9_41to9_40" type="4L25"/>
<edge from="9_42" to="9_41" id="9_42to9_41" type="4L25"/>
<edge from="9_42" to="8_42" id="9_42to8_42" type="2L25"/>
<edge from="9_43" to="9_42" id="9_43to9_42" type="4L25"/>
<edge from="9_44" to="9_43" id="9_44to9_43" type="4L25"/>
<edge from="9_44" to="8_44" id="9_44to8_44" type="2L25"/>
<edge from="9_45" to="9_44" id="9_45to9_44" type="4L25"/>
<edge from="9_46" to="9_45" id="9_46to9_45" type="4L25"/>
<edge from="9_46" to="8_46" id="9_46to8_46" type="2L25"/>
<edge from="9_47" to="9_46" id="9_47to9_46" type="4L25"/>
<edge from="9_48" to="9_47" id="9_48to9_47" type="4L25"/>
<edge from="9_48" to="8_48" id="9_48to8_48" type="2L25"/>
<edge from="9_49" to="9_48" id="9_49to9_48" type="4L25"/>
<edge from="9_50" to="9_49" id="9_50to9_49" type="4L25"/>
<edge from="9_50" to="8_50" id="9_50to8_50" type="2L25"/>
<edge from="9_51" to="9_50" id="9_51to9_50" type="4L25"/>
<edge from="9_52" to="9_51" id="9_52to9_51" type="4L25"/>
<edge from="9_52" to="8_52" id="9_52to8_52" type="2L25"/>
<edge from="9_53" to="9_52" id="9_53to9_52" type="4L25"/>
<edge from="9_54" to="9_53" id="9_54to9_53" type="4L25"/>
<edge from="9_54" to="8_54" id="9_54to8_54" type="2L25"/>
<edge from="9_55" to="9_54" id="9_55to9_54" type="4L25"/>
<edge from="9_56" to="9_55" id="9_56to9_55" type="4L25"/>
<edge from="9_56" to="8_56" id="9_56to8_56" type="2L25"/>
<edge from="9_57" to="9_56" id="9_57to9_56" type="4L25"/>
<edge from="9_57" to="8_57" id="9_57to8_57" type="2L25"/>
<edge from="9_58" to="9_57" id="9_58to9_57" type="4L25"/>
<edge from="9_58" to="8_58" id="9_58to8_58" type="2L25"/>
<edge from="8_30" to="8_31" id="8_30to8_31" type="4L25"/>
<edge from="8_30" to="7_30" id="8_30to7_30" type="2L25"/>
<edge from="8_31" to="9_31" id="8_31to9_31" type="2L25"/>
<edge from="8_31" to="8_32" id="8_31to8_32" type="4L25"/>
<edge from="8_32" to="8_33" id="8_32to8_33" type="4L25"/>
<edge from="8_32" to="7_32" id="8_32to7_32" type="2L25"/>
<edge from="8_33" to="9_33" id="8_33to9_33" type="2L25"/>
<edge from="8_33" to="8_34" id="8_33to8_34" type="4L25"/>
<edge from="8_34" to="9_34" id="8_34to9_34" type="2L25"/>
<edge from="8_34" to="8_35" id="8_34to8_35" type="4L25"/>
<edge from="8_34" to="7_34" id="8_34to7_34" type="2L25"/>
<edge from="8_35" to="9_35" id="8_35to9_35" type="2L25"/>
<edge from="8_35" to="8_36" id="8_35to8_36" type="4L25"/>
<edge from="8_36" to="8_37" id="8_36to8_37" type="4L25"/>
<edge from="8_36" to="7_36" id="8_36to7_36" type="2L25"/>
<edge from="8_37" to="9_37" id="8_37to9_37" type="2L25"/>
<edge from="8_37" to="8_38" id="8_37to8_38" type="4L25"/>
<edge from="8_38" to="8_39" id="8_38to8_39" type="4L25"/>
<edge from="8_38" to="7_38" id="8_38to7_38" type="2L25"/>
<edge from="8_39" to="9_39" id="8_39to9_39" type="2L25"/>
<edge from="8_39" to="8_40" id="8_39to8_40" type="4L25"/>
<edge from="8_40" to="8_41" id="8_40to8_41" type="4L25"/>
<edge from="8_40" to="7_40" id="8_40to7_40" type="2L25"/>
<edge from="8_41" to="9_41" id="8_41to9_41" type="2L25"/>
<edge from="8_41" to="8_42" id="8_41to8_42" type="4L25"/>
<edge from="8_42" to="9_42" id="8_42to9_42" type="2L25"/>
<edge from="8_42" to="8_43" id="8_42to8_43" type="4L25"/>
<edge from="8_42" to="7_42" id="8_42to7_42" type="2L25"/>
<edge from="8_43" to="9_43" id="8_43to9_43" type="2L25"/>
<edge from="8_43" to="8_44" id="8_43to8_44" type="4L25"/>
<edge from="8_44" to="8_45" id="8_44to8_45" type="4L25"/>
<edge from="8_44" to="7_44" id="8_44to7_44" type="2L25"/>
<edge from="8_45" to="9_45" id="8_45to9_45" type="2L25"/>
<edge from="8_45" to="8_46" id="8_45to8_46" type="4L25"/>
<edge from="8_46" to="8_47" id="8_46to8_47" type="4L25"/>
<edge from="8_46" to="7_46" id="8_46to7_46" type="2L25"/>
<edge from="8_47" to="9_47" id="8_47to9_47" type="2L25"/>
<edge from="8_47" to="8_48" id="8_47to8_48" type="4L25"/>
<edge from="8_48" to="8_49" id="8_48to8_49" type="4L25"/>
<edge from="8_48" to="7_48" id="8_48to7_48" type="2L25"/>
<edge from="8_49" to="9_49" id="8_49to9_49" type="2L25"/>
<edge from="8_49" to="8_50" id="8_49to8_50" type="4L25"/>
<edge from="8_50" to="8_51" id="8_50to8_51" type="4L25"/>
<edge from="8_50" to="7_50" id="8_50to7_50" type="2L25"/>
<edge from="8_51" to="9_51" id="8_51to9_51" type="2L25"/>
<edge from="8_51" to="8_52" id="8_51to8_52" type="4L25"/>
<edge from="8_52" to="8_53" id="8_52to8_53" type="4L25"/>
<edge from="8_52" to="7_52" id="8_52to7_52" type="2L25"/>
<edge from="8_53" to="9_53" id="8_53to9_53" type="2L25"/>
<edge from="8_53" to="8_54" id="8_53to8_54" type="4L25"/>
<edge from="8_54" to="8_55" id="8_54to8_55" type="4L25"/>
<edge from="8_54" to="7_54" id="8_54to7_54" type="2L25"/>
<edge from="8_55" to="9_55" id="8_55to9_55" type="2L25"/>
<edge from="8_55" to="8_56" id="8_55to8_56" type="4L25"/>
<edge from="8_56" to="8_57" id="8_56to8_57" type="4L25"/>
<edge from="8_56" to="7_56" id="8_56to7_56" type="2L25"/>
<edge from="8_57" to="9_57" id="8_57to9_57" type="2L25"/>
<edge from="8_57" to="8_58" id="8_57to8_58" type="4L25"/>
<edge from="8_57" to="7_57" id="8_57to7_57" type="2L25"/>
<edge from="8_58" to="7_58" id="8_58to7_58" type="2L25"/>
<edge from="7_30" to="6_30" id="7_30to6_30" type="2L25"/>
<edge from="7_31" to="8_31" id="7_31to8_31" type="2L25"/>
<edge from="7_31" to="7_30" id="7_31to7_30" type="4L25"/>
<edge from="7_32" to="7_31" id="7_32to7_31" type="4L25"/>
<edge from="7_32" to="6_32" id="7_32to6_32" type="2L25"/>
<edge from="7_33" to="8_33" id="7_33to8_33" type="2L25"/>
<edge from="7_33" to="7_32" id="7_33to7_32" type="4L25"/>
<edge from="7_34" to="8_34" id="7_34to8_34" type="2L25"/>
<edge from="7_34" to="7_33" id="7_34to7_33" type="4L25"/>
<edge from="7_34" to="6_34" id="7_34to6_34" type="2L25"/>
<edge from="7_35" to="8_35" id="7_35to8_35" type="2L25"/>
<edge from="7_35" to="7_34" id="7_35to7_34" type="4L25"/>
<edge from="7_36" to="7_35" id="7_36to7_35" type="4L25"/>
<edge from="7_36" to="6_36" id="7_36to6_36" type="2L25"/>
<edge from="7_37" to="8_37" id="7_37to8_37" type="2L25"/>
<edge from="7_37" to="7_36" id="7_37to7_36" type="4L25"/>
<edge from="7_38" to="7_37" id="7_38to7_37" type="4L25"/>
<edge from="7_38" to="6_38" id="7_38to6_38" type="2L25"/>
<edge from="7_39" to="8_39" id="7_39to8_39" type="2L25"/>
<edge from="7_39" to="7_38" id="7_39to7_38" type="4L25"/>
<edge from="7_40" to="7_39" id="7_40to7_39" type="4L25"/>
<edge from="7_40" to="6_40" id="7_40to6_40" type="2L25"/>
<edge from="7_41" to="8_41" id="7_41to8_41" type="2L25"/>
<edge from="7_41" to="7_40" id="7_41to7_40" type="4L25"/>
<edge from="7_42" to="8_42" id="7_42to8_42" type="2L25"/>
<edge from="7_42" to="7_41" id="7_42to7_41" type="4L25"/>
<edge from="7_42" to="6_42" id="7_42to6_42" type="2L25"/>
<edge from="7_43" to="8_43" id="7_43to8_43" type="2L25"/>
<edge from="7_43" to="7_42" id="7_43to7_42" type="4L25"/>
<edge from="7_44" to="7_43" id="7_44to7_43" type="4L25"/>
<edge from="7_44" to="6_44" id="7_44to6_44" type="2L25"/>
<edge from="7_45" to="8_45" id="7_45to8_45" type="2L25"/>
<edge from="7_45" to="7_44" id="7_45to7_44" type="4L25"/>
<edge from="7_46" to="7_45" id="7_46to7_45" type="4L25"/>
<edge from="7_46" to="6_46" id="7_46to6_46" type="2L25"/>
<edge from="7_47" to="8_47" id="7_47to8_47" type="2L25"/>
<edge from="7_47" to="7_46" id="7_47to7_46" type="4L25"/>
<edge from="7_48" to="7_47" id="7_48to7_47" type="4L25"/>
<edge from="7_48" to="6_48" id="7_48to6_48" type="2L25"/>
<edge from="7_49" to="8_49" id="7_49to8_49" type="2L25"/>
<edge from="7_49" to="7_48" id="7_49to7_48" type="4L25"/>
<edge from="7_50" to="7_49" id="7_50to7_49" type="4L25"/>
<edge from="7_50" to="6_50" id="7_50to6_50" type="2L25"/>
<edge from="7_51" to="8_51" id="7_51to8_51" type="2L25"/>
<edge from="7_51" to="7_50" id="7_51to7_50" type="4L25"/>
<edge from="7_52" to="7_51" id="7_52to7_51" type="4L25"/>
<edge from="7_52" to="6_52" id="7_52to6_52" type="2L25"/>
<edge from="7_53" to="8_53" id="7_53to8_53" type="2L25"/>
<edge from="7_53" to="7_52" id="7_53to7_52" type="4L25"/>
<edge from="7_54" to="7_53" id="7_54to7_53" type="4L25"/>
<edge from="7_54" to="6_54" id="7_54to6_54" type="2L25"/>
<edge from="7_55" to="8_55" id="7_55to8_55" type="2L25"/>
<edge from="7_55" to="7_54" id="7_55to7_54" type="4L25"/>
<edge from="7_56" to="7_55" id="7_56to7_55" type="4L25"/>
<edge from="7_56" to="6_56" id="7_56to6_56" type="2L25"/>
<edge from="7_57" to="8_57" id="7_57to8_57" type="2L25"/>
<edge from="7_57" to="7_56" id="7_57to7_56" type="4L25"/>
<edge from="7_57" to="6_57" id="7_57to6_57" type="2L25"/>
<edge from="7_58" to="7_57" id="7_58to7_57" type="4L25"/>
<edge from="7_58" to="6_58" id="7_58to6_58" type="2L25"/>
<edge from="6_30" to="6_31" id="6_30to6_31" type="4L25"/>
<edge from="6_30" to="5_30" id="6_30to5_30" type="2L25"/>
<edge from="6_31" to="7_31" id="6_31to7_31" type="2L25"/>
<edge from="6_31" to="6_32" id="6_31to6_32" type="4L25"/>
<edge from="6_32" to="6_33" id="6_32to6_33" type="4L25"/>
<edge from="6_32" to="5_32" id="6_32to5_32" type="2L25"/>
<edge from="6_33" to="7_33" id="6_33to7_33" type="2L25"/>
<edge from="6_33" to="6_34" id="6_33to6_34" type="4L25"/>
<edge from="6_34" to="7_34" id="6_34to7_34" type="2L25"/>
<edge from="6_34" to="6_35" id="6_34to6_35" type="4L25"/>
<edge from="6_34" to="5_34" id="6_34to5_34" type="2L25"/>
<edge from="6_35" to="7_35" id="6_35to7_35" type="2L25"/>
<edge from="6_35" to="6_36" id="6_35to6_36" type="4L25"/>
<edge from="6_36" to="6_37" id="6_36to6_37" type="4L25"/>
<edge from="6_36" to="5_36" id="6_36to5_36" type="2L25"/>
<edge from="6_37" to="7_37" id="6_37to7_37" type="2L25"/>
<edge from="6_37" to="6_38" id="6_37to6_38" type="4L25"/>
<edge from="6_38" to="6_39" id="6_38to6_39" type="4L25"/>
<edge from="6_38" to="5_38" id="6_38to5_38" type="2L25"/>
<edge from="6_39" to="7_39" id="6_39to7_39" type="2L25"/>
<edge from="6_39" to="6_40" id="6_39to6_40" type="4L25"/>
<edge from="6_40" to="6_41" id="6_40to6_41" type="4L25"/>
<edge from="6_40" to="5_40" id="6_40to5_40" type="2L25"/>
<edge from="6_41" to="7_41" id="6_41to7_41" type="2L25"/>
<edge from="6_41" to="6_42" id="6_41to6_42" type="4L25"/>
<edge from="6_42" to="7_42" id="6_42to7_42" type="2L25"/>
<edge from="6_42" to="6_43" id="6_42to6_43" type="4L25"/>
<edge from="6_42" to="5_42" id="6_42to5_42" type="2L25"/>
<edge from="6_43" to="7_43" id="6_43to7_43" type="2L25"/>
<edge from="6_43" to="6_44" id="6_43to6_44" type="4L25"/>
<edge from="6_44" to="6_45" id="6_44to6_45" type="4L25"/>
<edge from="6_44" to="5_44" id="6_44to5_44" type="2L25"/>
<edge from="6_45" to="7_45" id="6_45to7_45" type="2L25"/>
<edge from="6_45" to="6_46" id="6_45to6_46" type="4L25"/>
<edge from="6_46" to="6_47" id="6_46to6_47" type="4L25"/>
<edge from="6_46" to="5_46" id="6_46to5_46" type="2L25"/>
<edge from="6_47" to="7_47" id="6_47to7_47" type="2L25"/>
<edge from="6_47" to="6_48" id="6_47to6_48" type="4L25"/>
<edge from="6_48" to="6_49" id="6_48to6_49" type="4L25"/>
<edge from="6_48" to="5_48" id="6_48to5_48" type="2L25"/>
<edge from="6_49" to="7_49" id="6_49to7_49" type="2L25"/>
<edge from="6_49" to="6_50" id="6_49to6_50" type="4L25"/>
<edge from="6_50" to="6_51" id="6_50to6_51" type="4L25"/>
<edge from="6_50" to="5_50" id="6_50to5_50" type="2L25"/>
<edge from="6_51" to="7_51" id="6_51to7_51" type="2L25"/>
<edge from="6_51" to="6_52" id="6_51to6_52" type="4L25"/>
<edge from="6_52" to="6_53" id="6_52to6_53" type="4L25"/>
<edge from="6_52" to="5_52" id="6_52to5_52" type="2L25"/>
<edge from="6_53" to="7_53" id="6_53to7_53" type="2L25"/>
<edge from="6_53" to="6_54" id="6_53to6_54" type="4L25"/>
<edge from="6_54" to="6_55" id="6_54to6_55" type="4L25"/>
<edge from="6_54" to="5_54" id="6_54to5_54" type="2L25"/>
<edge from="6_55" to="7_55" id="6_55to7_55" type="2L25"/>
<edge from="6_55" to="6_56" id="6_55to6_56" type="4L25"/>
<edge from="6_56" to="6_57" id="6_56to6_57" type="4L25"/>
<edge from="6_56" to="5_56" id="6_56to5_56" type="2L25"/>
<edge from="6_57" to="7_57" id="6_57to7_57" type="2L25"/>
<edge from="6_57" to="6_58" id="6_57to6_58" type="4L25"/>
<edge from="6_57" to="5_57" id="6_57to5_57" type="2L25"/>
<edge from="6_58" to="5_58" id="6_58to5_58" type="2L25"/>
<edge from="5_30" to="Madison_30" id="5_30toMadison_30" type="2L25"/>
<edge from="5_31" to="6_31" id="5_31to6_31" type="2L25"/>
<edge from="5_31" to="5_30" id="5_31to5_30" type="4L25"/>
<edge from="5_32" to="5_31" id="5_32to5_31" type="4L25"/>
<edge from="5_32" to="Madison_32" id="5_32toMadison_32" type="2L25"/>
<edge from="5_33" to="6_33" id="5_33to6_33" type="2L25"/>
<edge from="5_33" to="5_32" id="5_33to5_32" type="4L25"/>
<edge from="5_34" to="6_34" id="5_34to6_34" type="2L25"/>
<edge from="5_34" to="5_33" id="5_34to5_33" type="4L25"/>
<edge from="5_34" to="Madison_34" id="5_34toMadison_34" type="2L25"/>
<edge from="5_35" to="6_35" id="5_35to6_35" type="2L25"/>
<edge from="5_35" to="5_34" id="5_35to5_34" type="4L25"/>
<edge from="5_36" to="5_35" id="5_36to5_35" type="4L25"/>
<edge from="5_36" to="Madison_36" id="5_36toMadison_36" type="2L25"/>
<edge from="5_37" to="6_37" id="5_37to6_37" type="2L25"/>
<edge from="5_37" to="5_36" id="5_37to5_36" type="4L25"/>
<edge from="5_38" to="5_37" id="5_38to5_37" type="4L25"/>
<edge from="5_38" to="Madison_38" id="5_38toMadison_38" type="2L25"/>
<edge from="5_39" to="6_39" id="5_39to6_39" type="2L25"/>
<edge from="5_39" to="5_38" id="5_39to5_38" type="4L25"/>
<edge from="5_40" to="5_39" id="5_40to5_39" type="4L25"/>
<edge from="5_40" to="Madison_40" id="5_40toMadison_40" type="2L25"/>
<edge from="5_41" to="6_41" id="5_41to6_41" type="2L25"/>
<edge from="5_41" to="5_40" id="5_41to5_40" type="4L25"/>
<edge from="5_42" to="6_42" id="5_42to6_42" type="2L25"/>
<edge from="5_42" to="5_41" id="5_42to5_41" type="4L25"/>
<edge from="5_42" to="Madison_42" id="5_42toMadison_42" type="2L25"/>
<edge from="5_43" to="6_43" id="5_43to6_43" type="2L25"/>
<edge from="5_43" to="5_42" id="5_43to5_42" type="4L25"/>
<edge from="5_44" to="5_43" id="5_44to5_43" type="4L25"/>
<edge from="5_44" to="Madison_44" id="5_44toMadison_44" type="2L25"/>
<edge from="5_45" to="6_45" id="5_45to6_45" type="2L25"/>
<edge from="5_45" to="5_44" id="5_45to5_44" type="4L25"/>
<edge from="5_46" to="5_45" id="5_46to5_45" type="4L25"/>
<edge from="5_46" to="Madison_46" id="5_46toMadison_46" type="2L25"/>
<edge from="5_47" to="6_47" id="5_47to6_47" type="2L25"/>
<edge from="5_47" to="5_46" id="5_47to5_46" type="4L25"/>
<edge from="5_48" to="5_47" id="5_48to5_47" type="4L25"/>
<edge from="5_48" to="Madison_48" id="5_48toMadison_48" type="2L25"/>
<edge from="5_49" to="6_49" id="5_49to6_49" type="2L25"/>
<edge from="5_49" to="5_48" id="5_49to5_48" type="4L25"/>
<edge from="5_50" to="5_49" id="5_50to5_49" type="4L25"/>
<edge from="5_50" to="Madison_50" id="5_50toMadison_50" type="2L25"/>
<edge from="5_51" to="6_51" id="5_51to6_51" type="2L25"/>
<edge from="5_51" to="5_50" id="5_51to5_50" type="4L25"/>
<edge from="5_52" to="5_51" id="5_52to5_51" type="4L25"/>
<edge from="5_52" to="Madison_52" id="5_52toMadison_52" type="2L25"/>
<edge from="5_53" to="6_53" id="5_53to6_53" type="2L25"/>
<edge from="5_53" to="5_52" id="5_53to5_52" type="4L25"/>
<edge from="5_54" to="5_53" id="5_54to5_53" type="4L25"/>
<edge from="5_54" to="Madison_54" id="5_54toMadison_54" type="2L25"/>
<edge from="5_55" to="6_55" id="5_55to6_55" type="2L25"/>
<edge from="5_55" to="5_54" id="5_55to5_54" type="4L25"/>
<edge from="5_56" to="5_55" id="5_56to5_55" type="4L25"/>
<edge from="5_56" to="Madison_56" id="5_56toMadison_56" type="2L25"/>
<edge from="5_57" to="6_57" id="5_57to6_57" type="2L25"/>
<edge from="5_57" to="5_56" id="5_57to5_56" type="4L25"/>
<edge from="5_57" to="Madison_57" id="5_57toMadison_57" type="2L25"/>
<edge from="5_58" to="5_57" id="5_58to5_57" type="4L25"/>
<edge from="5_58" to="Madison_58" id="5_58toMadison_58" type="2L25"/>
<edge from="Madison_30" to="Madison_31" id="Madison_30toMadison_31" type="4L25"/>
<edge from="Madison_30" to="Park_30" id="Madison_30toPark_30" type="2L25"/>
<edge from="Madison_31" to="5_31" id="Madison_31to5_31" type="2L25"/>
<edge from="Madison_31" to="Madison_32" id="Madison_31toMadison_32" type="4L25"/>
<edge from="Madison_32" to="Madison_33" id="Madison_32toMadison_33" type="4L25"/>
<edge from="Madison_32" to="Park_32" id="Madison_32toPark_32" type="2L25"/>
<edge from="Madison_33" to="5_33" id="Madison_33to5_33" type="2L25"/>
<edge from="Madison_33" to="Madison_34" id="Madison_33toMadison_34" type="4L25"/>
<edge from="Madison_34" to="5_34" id="Madison_34to5_34" type="2L25"/>
<edge from="Madison_34" to="Madison_35" id="Madison_34toMadison_35" type="4L25"/>
<edge from="Madison_34" to="Park_34" id="Madison_34toPark_34" type="2L25"/>
<edge from="Madison_35" to="5_35" id="Madison_35to5_35" type="2L25"/>
<edge from="Madison_35" to="Madison_36" id="Madison_35toMadison_36" type="4L25"/>
<edge from="Madison_36" to="Madison_37" id="Madison_36toMadison_37" type="4L25"/>
<edge from="Madison_36" to="Park_36" id="Madison_36toPark_36" type="2L25"/>
<edge from="Madison_37" to="5_37" id="Madison_37to5_37" type="2L25"/>
<edge from="Madison_37" to="Madison_38" id="Madison_37toMadison_38" type="4L25"/>
<edge from="Madison_38" to="Madison_39" id="Madison_38toMadison_39" type="4L25"/>
<edge from="Madison_38" to="Park_38" id="Madison_38toPark_38" type="2L25"/>
<edge from="Madison_39" to="5_39" id="Madison_39to5_39" type="2L25"/>
<edge from="Madison_39" to="Madison_40" id="Madison_39toMadison_40" type="4L25"/>
<edge from="Madison_40" to="Madison_41" id="Madison_40toMadison_41" type="4L25"/>
<edge from="Madison_40" to="Park_40" id="Madison_40toPark_40" type="2L25"/>
<edge from="Madison_41" to="5_41" id="Madison_41to5_41" type="2L25"/>
<edge from="Madison_41" to="Madison_42" id="Madison_41toMadison_42" type="4L25"/>
<edge from="Madison_42" to="5_42" id="Madison_42to5_42" type="2L25"/>
<edge from="Madison_42" to="Madison_43" id="Madison_42toMadison_43" type="4L25"/>
<edge from="Madison_42" to="Park_42" id="Madison_42toPark_42" type="2L25"/>
<edge from="Madison_43" to="5_43" id="Madison_43to5_43" type="2L25"/>
<edge from="Madison_43" to="Madison_44" id="Madison_43toMadison_44" type="4L25"/>
<edge from="Madison_44" to="Madison_45" id="Madison_44toMadison_45" type="4L25"/>
<edge from="Madison_44" to="Park_44" id="Madison_44toPark_44" type="2L25"/>
<edge from="Madison_45" to="5_45" id="Madison_45to5_45" type="2L25"/>
<edge from="Madison_45" to="Madison_46" id="Madison_45toMadison_46" type="4L25"/>
<edge from="Madison_46" to="Madison_47" id="Madison_46toMadison_47" type="4L25"/>
<edge from="Madison_46" to="Park_46" id="Madison_46toPark_46" type="2L25"/>
<edge from="Madison_47" to="5_47" id="Madison_47to5_47" type="2L25"/>
<edge from="Madison_47" to="Madison_48" id="Madison_47toMadison_48" type="4L25"/>
<edge from="Madison_48" to="Madison_49" id="Madison_48toMadison_49" type="4L25"/>
<edge from="Madison_48" to="Park_48" id="Madison_48toPark_48" type="2L25"/>
<edge from="Madison_49" to="5_49" id="Madison_49to5_49" type="2L25"/>
<edge from="Madison_49" to="Madison_50" id="Madison_49toMadison_50" type="4L25"/>
<edge from="Madison_50" to="Madison_51" id="Madison_50toMadison_51" type="4L25"/>
<edge from="Madison_50" to="Park_50" id="Madison_50toPark_50" type="2L25"/>
<edge from="Madison_51" to="5_51" id="Madison_51to5_51" type="2L25"/>
<edge from="Madison_51" to="Madison_52" id="Madison_51toMadison_52" type="4L25"/>
<edge from="Madison_52" to="Madison_53" id="Madison_52toMadison_53" type="4L25"/>
<edge from="Madison_52" to="Park_52" id="Madison_52toPark_52" type="2L25"/>
<edge from="Madison_53" to="5_53" id="Madison_53to5_53" type="2L25"/>
<edge from="Madison_53" to="Madison_54" id="Madison_53toMadison_54" type="4L25"/>
<edge from="Madison_54" to="Madison_55" id="Madison_54toMadison_55" type="4L25"/>
<edge from="Madison_54" to="Park_54" id="Madison_54toPark_54" type="2L25"/>
<edge from="Madison_55" to="5_55" id="Madison_55to5_55" type="2L25"/>
<edge from="Madison_55" to="Madison_56" id="Madison_55toMadison_56" type="4L25"/>
<edge from="Madison_56" to="Madison_57" id="Madison_56toMadison_57" type="4L25"/>
<edge from="Madison_56" to="Park_56" id="Madison_56toPark_56" type="2L25"/>
<edge from="Madison_57" to="5_57" id="Madison_57to5_57" type="2L25"/>
<edge from="Madison_57" to="Madison_58" id="Madison_57toMadison_58" type="4L25"/>
<edge from="Madison_57" to="Park_57" id="Madison_57toPark_57" type="2L25"/>
<edge from="Madison_58" to="Park_58" id="Madison_58toPark_58" type="2L25"/>
<edge from="Park_30" to="Park_31" id="Park_30toPark_31" type="2L25"/>
<edge from="Park_30" to="Lexington_30" id="Park_30toLexington_30" type="2L25"/>
<edge from="Park_31" to="Madison_31" id="Park_31toMadison_31" type="2L25"/>
<edge from="Park_31" to="Park_30" id="Park_31toPark_30" type="2L25"/>
<edge from="Park_31" to="Park_32" id="Park_31toPark_32" type="2L25"/>
<edge from="Park_32" to="Park_31" id="Park_32toPark_31" type="2L25"/>
<edge from="Park_32" to="Park_33" id="Park_32toPark_33" type="2L25"/>
<edge from="Park_32" to="Lexington_32" id="Park_32toLexington_32" type="2L25"/>
<edge from="Park_33" to="Madison_33" id="Park_33toMadison_33" type="2L25"/>
<edge from="Park_33" to="Park_32" id="Park_33toPark_32" type="2L25"/>
<edge from="Park_33" to="Park_34" id="Park_33toPark_34" type="2L25"/>
<edge from="Park_34" to="Madison_34" id="Park_34toMadison_34" type="2L25"/>
<edge from="Park_34" to="Park_33" id="Park_34toPark_33" type="2L25"/>
<edge from="Park_34" to="Park_35" id="Park_34toPark_35" type="2L25"/>
<edge from="Park_34" to="Lexington_34" id="Park_34toLexington_34" type="2L25"/>
<edge from="Park_35" to="Madison_35" id="Park_35toMadison_35" type="2L25"/>
<edge from="Park_35" to="Park_34" id="Park_35toPark_34" type="2L25"/>
<edge from="Park_35" to="Park_36" id="Park_35toPark_36" type="2L25"/>
<edge from="Park_36" to="Park_35" id="Park_36toPark_35" type="2L25"/>
<edge from="Park_36" to="Park_37" id="Park_36toPark_37" type="2L25"/>
<edge from="Park_36" to="Lexington_36" id="Park_36toLexington_36" type="2L25"/>
<edge from="Park_37" to="Madison_37" id="Park_37toMadison_37" type="2L25"/>
<edge from="Park_37" to="Park_36" id="Park_37toPark_36" type="2L25"/>
<edge from="Park_37" to="Park_38" id="Park_37toPark_38" type="2L25"/>
<edge from="Park_38" to="Park_37" id="Park_38toPark_37" type="2L25"/>
<edge from="Park_38" to="Park_39" id="Park_38toPark_39" type="2L25"/>
<edge from="Park_38" to="Lexington_38" id="Park_38toLexington_38" type="2L25"/>
<edge from="Park_39" to="Madison_39" id="Park_39toMadison_39" type="2L25"/>
<edge from="Park_39" to="Park_38" id="Park_39toPark_38" type="2L25"/>
<edge from="Park_39" to="Park_40" id="Park_39toPark_40" type="2L25"/>
<edge from="Park_40" to="Park_39" id="Park_40toPark_39" type="2L25"/>
<edge from="Park_40" to="Park_41" id="Park_40toPark_41" type="2L25"/>
<edge from="Park_40" to="Lexington_40" id="Park_40toLexington_40" type="2L25"/>
<edge from="Park_41" to="Madison_41" id="Park_41toMadison_41" type="2L25"/>
<edge from="Park_41" to="Park_40" id="Park_41toPark_40" type="2L25"/>
<edge from="Park_41" to="Park_42" id="Park_41toPark_42" type="2L25"/>
<edge from="Park_42" to="Madison_42" id="Park_42toMadison_42" type="2L25"/>
<edge from="Park_42" to="Park_41" id="Park_42toPark_41" type="2L25"/>
<edge from="Park_42" to="Park_43" id="Park_42toPark_43" type="2L25"/>
<edge from="Park_42" to="Lexington_42" id="Park_42toLexington_42" type="2L25"/>
<edge from="Park_43" to="Madison_43" id="Park_43toMadison_43" type="2L25"/>
<edge from="Park_43" to="Park_42" id="Park_43toPark_42" type="2L25"/>
<edge from="Park_43" to="Park_44" id="Park_43toPark_44" type="2L25"/>
<edge from="Park_44" to="Park_43" id="Park_44toPark_43" type="2L25"/>
<edge from="Park_44" to="Park_45" id="Park_44toPark_45" type="2L25"/>
<edge from="Park_44" to="Lexington_44" id="Park_44toLexington_44" type="2L25"/>
<edge from="Park_45" to="Madison_45" id="Park_45toMadison_45" type="2L25"/>
<edge from="Park_45" to="Park_44" id="Park_45toPark_44" type="2L25"/>
<edge from="Park_45" to="Park_46" id="Park_45toPark_46" type="2L25"/>
<edge from="Park_46" to="Park_45" id="Park_46toPark_45" type="2L25"/>
<edge from="Park_46" to="Park_47" id="Park_46toPark_47" type="2L25"/>
<edge from="Park_46" to="Lexington_46" id="Park_46toLexington_46" type="2L25"/>
<edge from="Park_47" to="Madison_47" id="Park_47toMadison_47" type="2L25"/>
<edge from="Park_47" to="Park_46" id="Park_47toPark_46" type="2L25"/>
<edge from="Park_47" to="Park_48" id="Park_47toPark_48" type="2L25"/>
<edge from="Park_48" to="Park_47" id="Park_48toPark_47" type="2L25"/>
<edge from="Park_48" to="Park_49" id="Park_48toPark_49" type="2L25"/>
<edge from="Park_48" to="Lexington_48" id="Park_48toLexington_48" type="2L25"/>
<edge from="Park_49" to="Madison_49" id="Park_49toMadison_49" type="2L25"/>
<edge from="Park_49" to="Park_48" id="Park_49toPark_48" type="2L25"/>
<edge from="Park_49" to="Park_50" id="Park_49toPark_50" type="2L25"/>
<edge from="Park_50" to="Park_49" id="Park_50toPark_49" type="2L25"/>
<edge from="Park_50" to="Park_51" id="Park_50toPark_51" type="2L25"/>
<edge from="Park_50" to="Lexington_50" id="Park_50toLexington_50" type="2L25"/>
<edge from="Park_51" to="Madison_51" id="Park_51toMadison_51" type="2L25"/>
<edge from="Park_51" to="Park_50" id="Park_51toPark_50" type="2L25"/>
<edge from="Park_51" to="Park_52" id="Park_51toPark_52" type="2L25"/>
<edge from="Park_52" to="Park_51" id="Park_52toPark_51" type="2L25"/>
<edge from="Park_52" to="Park_53" id="Park_52toPark_53" type="2L25"/>
<edge from="Park_52" to="Lexington_52" id="Park_52toLexington_52" type="2L25"/>
<edge from="Park_53" to="Madison_53" id="Park_53toMadison_53" type="2L25"/>
<edge from="Park_53" to="Park_52" id="Park_53toPark_52" type="2L25"/>
<edge from="Park_53" to="Park_54" id="Park_53toPark_54" type="2L25"/>
<edge from="Park_54" to="Park_53" id="Park_54toPark_53" type="2L25"/>
<edge from="Park_54" to="Park_55" id="Park_54toPark_55" type="2L25"/>
<edge from="Park_54" to="Lexington_54" id="Park_54toLexington_54" type="2L25"/>
<edge from="Park_55" to="Madison_55" id="Park_55toMadison_55" type="2L25"/>
<edge from="Park_55" to="Park_54" id="Park_55toPark_54" type="2L25"/>
<edge from="Park_55" to="Park_56" id="Park_55toPark_56" type="2L25"/>
<edge from="Park_56" to="Park_55" id="Park_56toPark_55" type="2L25"/>
<edge from="Park_56" to="Park_57" id="Park_56toPark_57" type="2L25"/>
<edge from="Park_56" to="Lexington_56" id="Park_56toLexington_56" type="2L25"/>
<edge from="Park_57" to="Madison_57" id="Park_57toMadison_57" type="2L25"/>
<edge from="Park_57" to="Park_56" id="Park_57toPark_56" type="2L25"/>
<edge from="Park_57" to="Park_58" id="Park_57toPark_58" type="2L25"/>
<edge from="Park_57" to="Lexington_57" id="Park_57toLexington_57" type="2L25"/>
<edge from="Park_58" to="Park_57" id="Park_58toPark_57" type="2L25"/>
<edge from="Park_58" to="Lexington_58" id="Park_58toLexington_58" type="2L25"/>
<edge from="Lexington_30" to="Lexington_31" id="Lexington_30toLexington_31" type="4L25"/>
<edge from="Lexington_31" to="Park_31" id="Lexington_31toPark_31" type="2L25"/>
<edge from="Lexington_31" to="Lexington_32" id="Lexington_31toLexington_32" type="4L25"/>
<edge from="Lexington_32" to="Lexington_33" id="Lexington_32toLexington_33" type="4L25"/>
<edge from="Lexington_33" to="Park_33" id="Lexington_33toPark_33" type="2L25"/>
<edge from="Lexington_33" to="Lexington_34" id="Lexington_33toLexington_34" type="4L25"/>
<edge from="Lexington_34" to="Park_34" id="Lexington_34toPark_34" type="2L25"/>
<edge from="Lexington_34" to="Lexington_35" id="Lexington_34toLexington_35" type="4L25"/>
<edge from="Lexington_35" to="Park_35" id="Lexington_35toPark_35" type="2L25"/>
<edge from="Lexington_35" to="Lexington_36" id="Lexington_35toLexington_36" type="4L25"/>
<edge from="Lexington_36" to="Lexington_37" id="Lexington_36toLexington_37" type="4L25"/>
<edge from="Lexington_37" to="Park_37" id="Lexington_37toPark_37" type="2L25"/>
<edge from="Lexington_37" to="Lexington_38" id="Lexington_37toLexington_38" type="4L25"/>
<edge from="Lexington_38" to="Lexington_39" id="Lexington_38toLexington_39" type="4L25"/>
<edge from="Lexington_39" to="Park_39" id="Lexington_39toPark_39" type="2L25"/>
<edge from="Lexington_39" to="Lexington_40" id="Lexington_39toLexington_40" type="4L25"/>
<edge from="Lexington_40" to="Lexington_41" id="Lexington_40toLexington_41" type="4L25"/>
<edge from="Lexington_41" to="Park_41" id="Lexington_41toPark_41" type="2L25"/>
<edge from="Lexington_41" to="Lexington_42" id="Lexington_41toLexington_42" type="4L25"/>
<edge from="Lexington_42" to="Park_42" id="Lexington_42toPark_42" type="2L25"/>
<edge from="Lexington_42" to="Lexington_43" id="Lexington_42toLexington_43" type="4L25"/>
<edge from="Lexington_43" to="Park_43" id="Lexington_43toPark_43" type="2L25"/>
<edge from="Lexington_43" to="Lexington_44" id="Lexington_43toLexington_44" type="4L25"/>
<edge from="Lexington_44" to="Lexington_45" id="Lexington_44toLexington_45" type="4L25"/>
<edge from="Lexington_45" to="Park_45" id="Lexington_45toPark_45" type="2L25"/>
<edge from="Lexington_45" to="Lexington_46" id="Lexington_45toLexington_46" type="4L25"/>