<configuration> 

<input> 
<net-file value="my_net.net.xml"/> 
<route-files value="week_0_day_0_route.rou.xml"/> 
<additional-files value="bus_stops.xml"/>
</input> 
<time> 
<begin value="0"/> 
<end value="86400"/> 
</time> 

</configuration> 
