<routes> 
<vType accel="1.0" decel="5.0" id="Car" length="2.0" maxSpeed="100.0" sigma="0.0" /> 
<vType accel="1.0" decel="5.0" id="Bus" length="12.0" maxSpeed="1.0" sigma="0.0" /> 

<route id="route0" edges="1to2 2to4 out1"/> 
<route id="route2" edges="1to3 3to4 out1"/> 
<vehicle depart="10" id="veh0" route="route0" type="Bus" /> 
<route id="route3" edges="1to3 3to5 out2"/> 
<vehicle depart="10" id="veh3" route="route2" type="Bus" /> 
<vehicle depart="10" id="veh4" route="route3" type="Bus" /> 
<route id="route1" edges="1to3 3to5 out2"/> 
<vehicle depart="20" id="veh1" route="route1" type="Car" /> 
<vehicle depart="30" id="veh2" route="route2" type="Car" /> 
<vehicle depart="35" id="veh12" route="route2" type="Car" /> 
<vehicle depart="45" id="veh13" route="route2" type="Car" /> 
<vehicle depart="55" id="veh14" route="route2" type="Car" /> 
</routes>
