<?xml version="1.0" encoding="UTF-8"?>

<!-- generated on 03/30/21 19:11:25 by Eclipse SUMO netconvert Version 1.8.0
<configuration xmlns:xsi="http://www.w3.org/2001/XMLSchema-instance" xsi:noNamespaceSchemaLocation="http://sumo.dlr.de/xsd/netconvertConfiguration.xsd">

    <input>
        <node-files value="my_nodes.nod.xml"/>
        <edge-files value="my_edge.edg.xml"/>
        <type-files value="my_type.type.xml"/>
    </input>

    <output>
        <output-file value="my_net.net.xml"/>
    </output>

    <report>
        <aggregate-warnings value="5"/>
    </report>

</configuration>
-->

<net version="1.6" junctionCornerDetail="5" limitTurnSpeed="5.50" xmlns:xsi="http://www.w3.org/2001/XMLSchema-instance" xsi:noNamespaceSchemaLocation="http://sumo.dlr.de/xsd/net_file.xsd">

    <location netOffset="0.00,0.00" convBoundary="0.00,0.00,1000.00,2800.00" origBoundary="0.00,0.00,1000.00,2800.00" projParameter="!"/>

    <type id="2L25" priority="2" numLanes="2" speed="25.00" width="1.00"/>
    <type id="3L25" priority="3" numLanes="3" speed="25.00" width="1.00"/>
    <type id="4L25" priority="3" numLanes="4" speed="25.00" width="1.00"/>

    <edge id=":5_30_0" function="internal">
        <lane id=":5_30_0_0" index="0" speed="6.75" length="10.53" width="1.00" shape="696.50,4.00 696.97,1.59 698.38,-0.13 700.72,-1.16 704.00,-1.50"/>
    </edge>
    <edge id=":5_30_1" function="internal">
        <lane id=":5_30_1_0" index="0" speed="6.24" length="8.93" width="1.00" shape="697.50,4.00 697.91,2.03 699.13,0.63 701.16,-0.22 704.00,-0.50"/>
    </edge>
    <edge id=":5_30_2" function="internal">
        <lane id=":5_30_2_0" index="0" speed="25.00" length="12.00" width="1.00" shape="692.00,-1.50 704.00,-1.50"/>
        <lane id=":5_30_2_1" index="1" speed="25.00" length="12.00" width="1.00" shape="692.00,-0.50 704.00,-0.50"/>
    </edge>
    <edge id=":5_31_0" function="internal">
        <lane id=":5_31_0_0" index="0" speed="5.65" length="7.26" width="1.00" shape="696.50,106.00 696.22,104.03 695.38,102.63 693.97,101.78 692.00,101.50"/>
    </edge>
    <edge id=":5_31_1" function="internal">
        <lane id=":5_31_1_0" index="0" speed="25.00" length="10.00" width="1.00" shape="696.50,106.00 696.50,96.00"/>
        <lane id=":5_31_1_1" index="1" speed="25.00" length="10.00" width="1.00" shape="697.50,106.00 697.50,96.00"/>
        <lane id=":5_31_1_2" index="2" speed="25.00" length="10.00" width="1.00" shape="698.50,106.00 698.50,96.00"/>
        <lane id=":5_31_1_3" index="3" speed="25.00" length="10.00" width="1.00" shape="699.50,106.00 699.50,96.00"/>
    </edge>
    <edge id=":5_31_5" function="internal">
        <lane id=":5_31_5_0" index="0" speed="25.00" length="12.00" width="1.00" shape="704.00,101.50 692.00,101.50"/>
        <lane id=":5_31_5_1" index="1" speed="25.00" length="12.00" width="1.00" shape="704.00,100.50 692.00,100.50"/>
    </edge>
    <edge id=":5_31_7" function="internal">
        <lane id=":5_31_7_0" index="0" speed="5.94" length="8.08" width="1.00" shape="704.00,100.50 701.59,100.22 699.88,99.38 698.84,97.97 698.50,96.00"/>
    </edge>
    <edge id=":5_31_8" function="internal">
        <lane id=":5_31_8_0" index="0" speed="5.65" length="7.26" width="1.00" shape="704.00,100.50 702.03,100.22 700.63,99.38 699.78,97.97 699.50,96.00"/>
    </edge>
    <edge id=":5_32_0" function="internal">
        <lane id=":5_32_0_0" index="0" speed="25.00" length="10.00" width="1.00" shape="696.50,204.00 696.50,194.00"/>
        <lane id=":5_32_0_1" index="1" speed="25.00" length="10.00" width="1.00" shape="697.50,204.00 697.50,194.00"/>
        <lane id=":5_32_0_2" index="2" speed="25.00" length="10.00" width="1.00" shape="698.50,204.00 698.50,194.00"/>
        <lane id=":5_32_0_3" index="3" speed="25.00" length="10.00" width="1.00" shape="699.50,204.00 699.50,194.00"/>
    </edge>
    <edge id=":5_32_4" function="internal">
        <lane id=":5_32_4_0" index="0" speed="5.65" length="7.26" width="1.00" shape="699.50,204.00 699.78,202.03 700.63,200.63 702.03,199.78 704.00,199.50"/>
    </edge>
    <edge id=":5_32_5" function="internal">
        <lane id=":5_32_5_0" index="0" speed="5.65" length="7.26" width="1.00" shape="692.00,198.50 693.97,198.22 695.38,197.38 696.22,195.97 696.50,194.00"/>
    </edge>
    <edge id=":5_32_6" function="internal">
        <lane id=":5_32_6_0" index="0" speed="6.22" length="8.87" width="1.00" shape="692.00,199.50 694.41,199.16 696.13,198.13 697.16,196.41 697.50,194.00"/>
    </edge>
    <edge id=":5_32_7" function="internal">
        <lane id=":5_32_7_0" index="0" speed="6.49" length="9.69" width="1.00" shape="692.00,199.50 694.84,199.16 696.88,198.13 698.09,196.41 698.50,194.00"/>
    </edge>
    <edge id=":5_32_8" function="internal">
        <lane id=":5_32_8_0" index="0" speed="25.00" length="12.04" width="1.00" shape="692.00,199.50 704.00,198.50"/>
    </edge>
    <edge id=":5_33_0" function="internal">
        <lane id=":5_33_0_0" index="0" speed="5.65" length="7.26" width="1.00" shape="696.50,306.00 696.22,304.03 695.38,302.63 693.97,301.78 692.00,301.50"/>
    </edge>
    <edge id=":5_33_1" function="internal">
        <lane id=":5_33_1_0" index="0" speed="25.00" length="10.00" width="1.00" shape="696.50,306.00 696.50,296.00"/>
        <lane id=":5_33_1_1" index="1" speed="25.00" length="10.00" width="1.00" shape="697.50,306.00 697.50,296.00"/>
        <lane id=":5_33_1_2" index="2" speed="25.00" length="10.00" width="1.00" shape="698.50,306.00 698.50,296.00"/>
        <lane id=":5_33_1_3" index="3" speed="25.00" length="10.00" width="1.00" shape="699.50,306.00 699.50,296.00"/>
    </edge>
    <edge id=":5_33_5" function="internal">
        <lane id=":5_33_5_0" index="0" speed="25.00" length="12.00" width="1.00" shape="704.00,301.50 692.00,301.50"/>
        <lane id=":5_33_5_1" index="1" speed="25.00" length="12.00" width="1.00" shape="704.00,300.50 692.00,300.50"/>
    </edge>
    <edge id=":5_33_7" function="internal">
        <lane id=":5_33_7_0" index="0" speed="5.94" length="8.08" width="1.00" shape="704.00,300.50 701.59,300.22 699.88,299.38 698.84,297.97 698.50,296.00"/>
    </edge>
    <edge id=":5_33_8" function="internal">
        <lane id=":5_33_8_0" index="0" speed="5.65" length="7.26" width="1.00" shape="704.00,300.50 702.03,300.22 700.63,299.38 699.78,297.97 699.50,296.00"/>
    </edge>
    <edge id=":5_34_0" function="internal">
        <lane id=":5_34_0_0" index="0" speed="5.65" length="7.26" width="1.00" shape="696.50,406.00 696.22,404.03 695.38,402.63 693.97,401.78 692.00,401.50"/>
    </edge>
    <edge id=":5_34_1" function="internal">
        <lane id=":5_34_1_0" index="0" speed="25.00" length="12.00" width="1.00" shape="696.50,406.00 696.50,394.00"/>
        <lane id=":5_34_1_1" index="1" speed="25.00" length="12.00" width="1.00" shape="697.50,406.00 697.50,394.00"/>
        <lane id=":5_34_1_2" index="2" speed="25.00" length="12.00" width="1.00" shape="698.50,406.00 698.50,394.00"/>
        <lane id=":5_34_1_3" index="3" speed="25.00" length="12.00" width="1.00" shape="699.50,406.00 699.50,394.00"/>
    </edge>
    <edge id=":5_34_5" function="internal">
        <lane id=":5_34_5_0" index="0" speed="6.24" length="8.93" width="1.00" shape="699.50,406.00 699.78,403.16 700.63,401.13 702.03,399.91 704.00,399.50"/>
    </edge>
    <edge id=":5_34_6" function="internal">
        <lane id=":5_34_6_0" index="0" speed="25.00" length="12.00" width="1.00" shape="704.00,401.50 692.00,401.50"/>
        <lane id=":5_34_6_1" index="1" speed="25.00" length="12.00" width="1.00" shape="704.00,400.50 692.00,400.50"/>
    </edge>
    <edge id=":5_34_8" function="internal">
        <lane id=":5_34_8_0" index="0" speed="6.24" length="8.93" width="1.00" shape="704.00,400.50 702.03,400.09 700.63,398.88 699.78,396.84 699.50,394.00"/>
    </edge>
    <edge id=":5_34_9" function="internal">
        <lane id=":5_34_9_0" index="0" speed="2.04" length="1.46" width="1.00" shape="704.00,400.50 703.63,400.25 703.50,400.00 703.63,399.75 704.00,399.50"/>
    </edge>
    <edge id=":5_34_10" function="internal">
        <lane id=":5_34_10_0" index="0" speed="5.65" length="7.26" width="1.00" shape="692.00,398.50 693.97,398.22 695.38,397.38 696.22,395.97 696.50,394.00"/>
    </edge>
    <edge id=":5_34_11" function="internal">
        <lane id=":5_34_11_0" index="0" speed="6.22" length="8.87" width="1.00" shape="692.00,399.50 694.41,399.16 696.13,398.13 697.16,396.41 697.50,394.00"/>
    </edge>
    <edge id=":5_34_12" function="internal">
        <lane id=":5_34_12_0" index="0" speed="25.00" length="12.04" width="1.00" shape="692.00,399.50 704.00,398.50"/>
    </edge>
    <edge id=":5_34_13" function="internal">
        <lane id=":5_34_13_0" index="0" speed="2.04" length="1.46" width="1.00" shape="692.00,399.50 692.38,399.75 692.50,400.00 692.38,400.25 692.00,400.50"/>
    </edge>
    <edge id=":5_35_0" function="internal">
        <lane id=":5_35_0_0" index="0" speed="5.65" length="7.26" width="1.00" shape="696.50,506.00 696.22,504.03 695.38,502.63 693.97,501.78 692.00,501.50"/>
    </edge>
    <edge id=":5_35_1" function="internal">
        <lane id=":5_35_1_0" index="0" speed="25.00" length="10.00" width="1.00" shape="696.50,506.00 696.50,496.00"/>
        <lane id=":5_35_1_1" index="1" speed="25.00" length="10.00" width="1.00" shape="697.50,506.00 697.50,496.00"/>
        <lane id=":5_35_1_2" index="2" speed="25.00" length="10.00" width="1.00" shape="698.50,506.00 698.50,496.00"/>
        <lane id=":5_35_1_3" index="3" speed="25.00" length="10.00" width="1.00" shape="699.50,506.00 699.50,496.00"/>
    </edge>
    <edge id=":5_35_5" function="internal">
        <lane id=":5_35_5_0" index="0" speed="25.00" length="12.00" width="1.00" shape="704.00,501.50 692.00,501.50"/>
        <lane id=":5_35_5_1" index="1" speed="25.00" length="12.00" width="1.00" shape="704.00,500.50 692.00,500.50"/>
    </edge>
    <edge id=":5_35_7" function="internal">
        <lane id=":5_35_7_0" index="0" speed="5.94" length="8.08" width="1.00" shape="704.00,500.50 701.59,500.22 699.88,499.38 698.84,497.97 698.50,496.00"/>
    </edge>
    <edge id=":5_35_8" function="internal">
        <lane id=":5_35_8_0" index="0" speed="5.65" length="7.26" width="1.00" shape="704.00,500.50 702.03,500.22 700.63,499.38 699.78,497.97 699.50,496.00"/>
    </edge>
    <edge id=":5_36_0" function="internal">
        <lane id=":5_36_0_0" index="0" speed="25.00" length="10.00" width="1.00" shape="696.50,604.00 696.50,594.00"/>
        <lane id=":5_36_0_1" index="1" speed="25.00" length="10.00" width="1.00" shape="697.50,604.00 697.50,594.00"/>
        <lane id=":5_36_0_2" index="2" speed="25.00" length="10.00" width="1.00" shape="698.50,604.00 698.50,594.00"/>
        <lane id=":5_36_0_3" index="3" speed="25.00" length="10.00" width="1.00" shape="699.50,604.00 699.50,594.00"/>
    </edge>
    <edge id=":5_36_4" function="internal">
        <lane id=":5_36_4_0" index="0" speed="5.65" length="7.26" width="1.00" shape="699.50,604.00 699.78,602.03 700.63,600.63 702.03,599.78 704.00,599.50"/>
    </edge>
    <edge id=":5_36_5" function="internal">
        <lane id=":5_36_5_0" index="0" speed="5.65" length="7.26" width="1.00" shape="692.00,598.50 693.97,598.22 695.38,597.38 696.22,595.97 696.50,594.00"/>
    </edge>
    <edge id=":5_36_6" function="internal">
        <lane id=":5_36_6_0" index="0" speed="6.22" length="8.87" width="1.00" shape="692.00,599.50 694.41,599.16 696.13,598.13 697.16,596.41 697.50,594.00"/>
    </edge>
    <edge id=":5_36_7" function="internal">
        <lane id=":5_36_7_0" index="0" speed="6.49" length="9.69" width="1.00" shape="692.00,599.50 694.84,599.16 696.88,598.13 698.09,596.41 698.50,594.00"/>
    </edge>
    <edge id=":5_36_8" function="internal">
        <lane id=":5_36_8_0" index="0" speed="25.00" length="12.04" width="1.00" shape="692.00,599.50 704.00,598.50"/>
    </edge>
    <edge id=":5_37_0" function="internal">
        <lane id=":5_37_0_0" index="0" speed="5.65" length="7.26" width="1.00" shape="696.50,706.00 696.22,704.03 695.38,702.63 693.97,701.78 692.00,701.50"/>
    </edge>
    <edge id=":5_37_1" function="internal">
        <lane id=":5_37_1_0" index="0" speed="25.00" length="10.00" width="1.00" shape="696.50,706.00 696.50,696.00"/>
        <lane id=":5_37_1_1" index="1" speed="25.00" length="10.00" width="1.00" shape="697.50,706.00 697.50,696.00"/>
        <lane id=":5_37_1_2" index="2" speed="25.00" length="10.00" width="1.00" shape="698.50,706.00 698.50,696.00"/>
        <lane id=":5_37_1_3" index="3" speed="25.00" length="10.00" width="1.00" shape="699.50,706.00 699.50,696.00"/>
    </edge>
    <edge id=":5_37_5" function="internal">
        <lane id=":5_37_5_0" index="0" speed="25.00" length="12.00" width="1.00" shape="704.00,701.50 692.00,701.50"/>
        <lane id=":5_37_5_1" index="1" speed="25.00" length="12.00" width="1.00" shape="704.00,700.50 692.00,700.50"/>
    </edge>
    <edge id=":5_37_7" function="internal">
        <lane id=":5_37_7_0" index="0" speed="5.94" length="8.08" width="1.00" shape="704.00,700.50 701.59,700.22 699.88,699.38 698.84,697.97 698.50,696.00"/>
    </edge>
    <edge id=":5_37_8" function="internal">
        <lane id=":5_37_8_0" index="0" speed="5.65" length="7.26" width="1.00" shape="704.00,700.50 702.03,700.22 700.63,699.38 699.78,697.97 699.50,696.00"/>
    </edge>
    <edge id=":5_38_0" function="internal">
        <lane id=":5_38_0_0" index="0" speed="25.00" length="10.00" width="1.00" shape="696.50,804.00 696.50,794.00"/>
        <lane id=":5_38_0_1" index="1" speed="25.00" length="10.00" width="1.00" shape="697.50,804.00 697.50,794.00"/>
        <lane id=":5_38_0_2" index="2" speed="25.00" length="10.00" width="1.00" shape="698.50,804.00 698.50,794.00"/>
        <lane id=":5_38_0_3" index="3" speed="25.00" length="10.00" width="1.00" shape="699.50,804.00 699.50,794.00"/>
    </edge>
    <edge id=":5_38_4" function="internal">
        <lane id=":5_38_4_0" index="0" speed="5.65" length="7.26" width="1.00" shape="699.50,804.00 699.78,802.03 700.63,800.63 702.03,799.78 704.00,799.50"/>
    </edge>
    <edge id=":5_38_5" function="internal">
        <lane id=":5_38_5_0" index="0" speed="5.65" length="7.26" width="1.00" shape="692.00,798.50 693.97,798.22 695.38,797.38 696.22,795.97 696.50,794.00"/>
    </edge>
    <edge id=":5_38_6" function="internal">
        <lane id=":5_38_6_0" index="0" speed="6.22" length="8.87" width="1.00" shape="692.00,799.50 694.41,799.16 696.13,798.13 697.16,796.41 697.50,794.00"/>
    </edge>
    <edge id=":5_38_7" function="internal">
        <lane id=":5_38_7_0" index="0" speed="6.49" length="9.69" width="1.00" shape="692.00,799.50 694.84,799.16 696.88,798.13 698.09,796.41 698.50,794.00"/>
    </edge>
    <edge id=":5_38_8" function="internal">
        <lane id=":5_38_8_0" index="0" speed="25.00" length="12.04" width="1.00" shape="692.00,799.50 704.00,798.50"/>
    </edge>
    <edge id=":5_39_0" function="internal">
        <lane id=":5_39_0_0" index="0" speed="5.65" length="7.26" width="1.00" shape="696.50,906.00 696.22,904.03 695.38,902.63 693.97,901.78 692.00,901.50"/>
    </edge>
    <edge id=":5_39_1" function="internal">
        <lane id=":5_39_1_0" index="0" speed="25.00" length="10.00" width="1.00" shape="696.50,906.00 696.50,896.00"/>
        <lane id=":5_39_1_1" index="1" speed="25.00" length="10.00" width="1.00" shape="697.50,906.00 697.50,896.00"/>
        <lane id=":5_39_1_2" index="2" speed="25.00" length="10.00" width="1.00" shape="698.50,906.00 698.50,896.00"/>
        <lane id=":5_39_1_3" index="3" speed="25.00" length="10.00" width="1.00" shape="699.50,906.00 699.50,896.00"/>
    </edge>
    <edge id=":5_39_5" function="internal">
        <lane id=":5_39_5_0" index="0" speed="25.00" length="12.00" width="1.00" shape="704.00,901.50 692.00,901.50"/>
        <lane id=":5_39_5_1" index="1" speed="25.00" length="12.00" width="1.00" shape="704.00,900.50 692.00,900.50"/>
    </edge>
    <edge id=":5_39_7" function="internal">
        <lane id=":5_39_7_0" index="0" speed="5.94" length="8.08" width="1.00" shape="704.00,900.50 701.59,900.22 699.88,899.38 698.84,897.97 698.50,896.00"/>
    </edge>
    <edge id=":5_39_8" function="internal">
        <lane id=":5_39_8_0" index="0" speed="5.65" length="7.26" width="1.00" shape="704.00,900.50 702.03,900.22 700.63,899.38 699.78,897.97 699.50,896.00"/>
    </edge>
    <edge id=":5_40_0" function="internal">
        <lane id=":5_40_0_0" index="0" speed="25.00" length="10.00" width="1.00" shape="696.50,1004.00 696.50,994.00"/>
        <lane id=":5_40_0_1" index="1" speed="25.00" length="10.00" width="1.00" shape="697.50,1004.00 697.50,994.00"/>
        <lane id=":5_40_0_2" index="2" speed="25.00" length="10.00" width="1.00" shape="698.50,1004.00 698.50,994.00"/>
        <lane id=":5_40_0_3" index="3" speed="25.00" length="10.00" width="1.00" shape="699.50,1004.00 699.50,994.00"/>
    </edge>
    <edge id=":5_40_4" function="internal">
        <lane id=":5_40_4_0" index="0" speed="5.65" length="7.26" width="1.00" shape="699.50,1004.00 699.78,1002.03 700.63,1000.63 702.03,999.78 704.00,999.50"/>
    </edge>
    <edge id=":5_40_5" function="internal">
        <lane id=":5_40_5_0" index="0" speed="5.65" length="7.26" width="1.00" shape="692.00,998.50 693.97,998.22 695.38,997.38 696.22,995.97 696.50,994.00"/>
    </edge>
    <edge id=":5_40_6" function="internal">
        <lane id=":5_40_6_0" index="0" speed="6.22" length="8.87" width="1.00" shape="692.00,999.50 694.41,999.16 696.13,998.13 697.16,996.41 697.50,994.00"/>
    </edge>
    <edge id=":5_40_7" function="internal">
        <lane id=":5_40_7_0" index="0" speed="6.49" length="9.69" width="1.00" shape="692.00,999.50 694.84,999.16 696.88,998.13 698.09,996.41 698.50,994.00"/>
    </edge>
    <edge id=":5_40_8" function="internal">
        <lane id=":5_40_8_0" index="0" speed="25.00" length="12.04" width="1.00" shape="692.00,999.50 704.00,998.50"/>
    </edge>
    <edge id=":5_41_0" function="internal">
        <lane id=":5_41_0_0" index="0" speed="5.65" length="7.26" width="1.00" shape="696.50,1106.00 696.22,1104.03 695.38,1102.63 693.97,1101.78 692.00,1101.50"/>
    </edge>
    <edge id=":5_41_1" function="internal">
        <lane id=":5_41_1_0" index="0" speed="25.00" length="10.00" width="1.00" shape="696.50,1106.00 696.50,1096.00"/>
        <lane id=":5_41_1_1" index="1" speed="25.00" length="10.00" width="1.00" shape="697.50,1106.00 697.50,1096.00"/>
        <lane id=":5_41_1_2" index="2" speed="25.00" length="10.00" width="1.00" shape="698.50,1106.00 698.50,1096.00"/>
        <lane id=":5_41_1_3" index="3" speed="25.00" length="10.00" width="1.00" shape="699.50,1106.00 699.50,1096.00"/>
    </edge>
    <edge id=":5_41_5" function="internal">
        <lane id=":5_41_5_0" index="0" speed="25.00" length="12.00" width="1.00" shape="704.00,1101.50 692.00,1101.50"/>
        <lane id=":5_41_5_1" index="1" speed="25.00" length="12.00" width="1.00" shape="704.00,1100.50 692.00,1100.50"/>
    </edge>
    <edge id=":5_41_7" function="internal">
        <lane id=":5_41_7_0" index="0" speed="5.94" length="8.08" width="1.00" shape="704.00,1100.50 701.59,1100.22 699.88,1099.38 698.84,1097.97 698.50,1096.00"/>
    </edge>
    <edge id=":5_41_8" function="internal">
        <lane id=":5_41_8_0" index="0" speed="5.65" length="7.26" width="1.00" shape="704.00,1100.50 702.03,1100.22 700.63,1099.38 699.78,1097.97 699.50,1096.00"/>
    </edge>
    <edge id=":5_42_0" function="internal">
        <lane id=":5_42_0_0" index="0" speed="5.65" length="7.26" width="1.00" shape="696.50,1206.00 696.22,1204.03 695.38,1202.63 693.97,1201.78 692.00,1201.50"/>
    </edge>
    <edge id=":5_42_1" function="internal">
        <lane id=":5_42_1_0" index="0" speed="25.00" length="12.00" width="1.00" shape="696.50,1206.00 696.50,1194.00"/>
        <lane id=":5_42_1_1" index="1" speed="25.00" length="12.00" width="1.00" shape="697.50,1206.00 697.50,1194.00"/>
        <lane id=":5_42_1_2" index="2" speed="25.00" length="12.00" width="1.00" shape="698.50,1206.00 698.50,1194.00"/>
        <lane id=":5_42_1_3" index="3" speed="25.00" length="12.00" width="1.00" shape="699.50,1206.00 699.50,1194.00"/>
    </edge>
    <edge id=":5_42_5" function="internal">
        <lane id=":5_42_5_0" index="0" speed="6.24" length="8.93" width="1.00" shape="699.50,1206.00 699.78,1203.16 700.63,1201.13 702.03,1199.91 704.00,1199.50"/>
    </edge>
    <edge id=":5_42_6" function="internal">
        <lane id=":5_42_6_0" index="0" speed="25.00" length="12.00" width="1.00" shape="704.00,1201.50 692.00,1201.50"/>
        <lane id=":5_42_6_1" index="1" speed="25.00" length="12.00" width="1.00" shape="704.00,1200.50 692.00,1200.50"/>
    </edge>
    <edge id=":5_42_8" function="internal">
        <lane id=":5_42_8_0" index="0" speed="6.24" length="8.93" width="1.00" shape="704.00,1200.50 702.03,1200.09 700.63,1198.88 699.78,1196.84 699.50,1194.00"/>
    </edge>
    <edge id=":5_42_9" function="internal">
        <lane id=":5_42_9_0" index="0" speed="2.04" length="1.46" width="1.00" shape="704.00,1200.50 703.63,1200.25 703.50,1200.00 703.63,1199.75 704.00,1199.50"/>
    </edge>
    <edge id=":5_42_10" function="internal">
        <lane id=":5_42_10_0" index="0" speed="5.65" length="7.26" width="1.00" shape="692.00,1198.50 693.97,1198.22 695.38,1197.38 696.22,1195.97 696.50,1194.00"/>
    </edge>
    <edge id=":5_42_11" function="internal">
        <lane id=":5_42_11_0" index="0" speed="6.22" length="8.87" width="1.00" shape="692.00,1199.50 694.41,1199.16 696.13,1198.13 697.16,1196.41 697.50,1194.00"/>
    </edge>
    <edge id=":5_42_12" function="internal">
        <lane id=":5_42_12_0" index="0" speed="25.00" length="12.04" width="1.00" shape="692.00,1199.50 704.00,1198.50"/>
    </edge>
    <edge id=":5_42_13" function="internal">
        <lane id=":5_42_13_0" index="0" speed="2.04" length="1.46" width="1.00" shape="692.00,1199.50 692.38,1199.75 692.50,1200.00 692.38,1200.25 692.00,1200.50"/>
    </edge>
    <edge id=":5_43_0" function="internal">
        <lane id=":5_43_0_0" index="0" speed="5.65" length="7.26" width="1.00" shape="696.50,1306.00 696.22,1304.03 695.38,1302.63 693.97,1301.78 692.00,1301.50"/>
    </edge>
    <edge id=":5_43_1" function="internal">
        <lane id=":5_43_1_0" index="0" speed="25.00" length="10.00" width="1.00" shape="696.50,1306.00 696.50,1296.00"/>
        <lane id=":5_43_1_1" index="1" speed="25.00" length="10.00" width="1.00" shape="697.50,1306.00 697.50,1296.00"/>
        <lane id=":5_43_1_2" index="2" speed="25.00" length="10.00" width="1.00" shape="698.50,1306.00 698.50,1296.00"/>
        <lane id=":5_43_1_3" index="3" speed="25.00" length="10.00" width="1.00" shape="699.50,1306.00 699.50,1296.00"/>
    </edge>
    <edge id=":5_43_5" function="internal">
        <lane id=":5_43_5_0" index="0" speed="25.00" length="12.00" width="1.00" shape="704.00,1301.50 692.00,1301.50"/>
        <lane id=":5_43_5_1" index="1" speed="25.00" length="12.00" width="1.00" shape="704.00,1300.50 692.00,1300.50"/>
    </edge>
    <edge id=":5_43_7" function="internal">
        <lane id=":5_43_7_0" index="0" speed="5.94" length="8.08" width="1.00" shape="704.00,1300.50 701.59,1300.22 699.88,1299.38 698.84,1297.97 698.50,1296.00"/>
    </edge>
    <edge id=":5_43_8" function="internal">
        <lane id=":5_43_8_0" index="0" speed="5.65" length="7.26" width="1.00" shape="704.00,1300.50 702.03,1300.22 700.63,1299.38 699.78,1297.97 699.50,1296.00"/>
    </edge>
    <edge id=":5_44_0" function="internal">
        <lane id=":5_44_0_0" index="0" speed="25.00" length="10.00" width="1.00" shape="696.50,1404.00 696.50,1394.00"/>
        <lane id=":5_44_0_1" index="1" speed="25.00" length="10.00" width="1.00" shape="697.50,1404.00 697.50,1394.00"/>
        <lane id=":5_44_0_2" index="2" speed="25.00" length="10.00" width="1.00" shape="698.50,1404.00 698.50,1394.00"/>
        <lane id=":5_44_0_3" index="3" speed="25.00" length="10.00" width="1.00" shape="699.50,1404.00 699.50,1394.00"/>
    </edge>
    <edge id=":5_44_4" function="internal">
        <lane id=":5_44_4_0" index="0" speed="5.65" length="7.26" width="1.00" shape="699.50,1404.00 699.78,1402.03 700.63,1400.63 702.03,1399.78 704.00,1399.50"/>
    </edge>
    <edge id=":5_44_5" function="internal">
        <lane id=":5_44_5_0" index="0" speed="5.65" length="7.26" width="1.00" shape="692.00,1398.50 693.97,1398.22 695.38,1397.38 696.22,1395.97 696.50,1394.00"/>
    </edge>
    <edge id=":5_44_6" function="internal">
        <lane id=":5_44_6_0" index="0" speed="6.22" length="8.87" width="1.00" shape="692.00,1399.50 694.41,1399.16 696.13,1398.13 697.16,1396.41 697.50,1394.00"/>
    </edge>
    <edge id=":5_44_7" function="internal">
        <lane id=":5_44_7_0" index="0" speed="6.49" length="9.69" width="1.00" shape="692.00,1399.50 694.84,1399.16 696.88,1398.13 698.09,1396.41 698.50,1394.00"/>
    </edge>
    <edge id=":5_44_8" function="internal">
        <lane id=":5_44_8_0" index="0" speed="25.00" length="12.04" width="1.00" shape="692.00,1399.50 704.00,1398.50"/>
    </edge>
    <edge id=":5_45_0" function="internal">
        <lane id=":5_45_0_0" index="0" speed="5.65" length="7.26" width="1.00" shape="696.50,1506.00 696.22,1504.03 695.38,1502.63 693.97,1501.78 692.00,1501.50"/>
    </edge>
    <edge id=":5_45_1" function="internal">
        <lane id=":5_45_1_0" index="0" speed="25.00" length="10.00" width="1.00" shape="696.50,1506.00 696.50,1496.00"/>
        <lane id=":5_45_1_1" index="1" speed="25.00" length="10.00" width="1.00" shape="697.50,1506.00 697.50,1496.00"/>
        <lane id=":5_45_1_2" index="2" speed="25.00" length="10.00" width="1.00" shape="698.50,1506.00 698.50,1496.00"/>
        <lane id=":5_45_1_3" index="3" speed="25.00" length="10.00" width="1.00" shape="699.50,1506.00 699.50,1496.00"/>
    </edge>
    <edge id=":5_45_5" function="internal">
        <lane id=":5_45_5_0" index="0" speed="25.00" length="12.00" width="1.00" shape="704.00,1501.50 692.00,1501.50"/>
        <lane id=":5_45_5_1" index="1" speed="25.00" length="12.00" width="1.00" shape="704.00,1500.50 692.00,1500.50"/>
    </edge>
    <edge id=":5_45_7" function="internal">
        <lane id=":5_45_7_0" index="0" speed="5.94" length="8.08" width="1.00" shape="704.00,1500.50 701.59,1500.22 699.88,1499.38 698.84,1497.97 698.50,1496.00"/>
    </edge>
    <edge id=":5_45_8" function="internal">
        <lane id=":5_45_8_0" index="0" speed="5.65" length="7.26" width="1.00" shape="704.00,1500.50 702.03,1500.22 700.63,1499.38 699.78,1497.97 699.50,1496.00"/>
    </edge>
    <edge id=":5_46_0" function="internal">
        <lane id=":5_46_0_0" index="0" speed="25.00" length="10.00" width="1.00" shape="696.50,1604.00 696.50,1594.00"/>
        <lane id=":5_46_0_1" index="1" speed="25.00" length="10.00" width="1.00" shape="697.50,1604.00 697.50,1594.00"/>
        <lane id=":5_46_0_2" index="2" speed="25.00" length="10.00" width="1.00" shape="698.50,1604.00 698.50,1594.00"/>
        <lane id=":5_46_0_3" index="3" speed="25.00" length="10.00" width="1.00" shape="699.50,1604.00 699.50,1594.00"/>
    </edge>
    <edge id=":5_46_4" function="internal">
        <lane id=":5_46_4_0" index="0" speed="5.65" length="7.26" width="1.00" shape="699.50,1604.00 699.78,1602.03 700.63,1600.63 702.03,1599.78 704.00,1599.50"/>
    </edge>
    <edge id=":5_46_5" function="internal">
        <lane id=":5_46_5_0" index="0" speed="5.65" length="7.26" width="1.00" shape="692.00,1598.50 693.97,1598.22 695.38,1597.38 696.22,1595.97 696.50,1594.00"/>
    </edge>
    <edge id=":5_46_6" function="internal">
        <lane id=":5_46_6_0" index="0" speed="6.22" length="8.87" width="1.00" shape="692.00,1599.50 694.41,1599.16 696.13,1598.13 697.16,1596.41 697.50,1594.00"/>
    </edge>
    <edge id=":5_46_7" function="internal">
        <lane id=":5_46_7_0" index="0" speed="6.49" length="9.69" width="1.00" shape="692.00,1599.50 694.84,1599.16 696.88,1598.13 698.09,1596.41 698.50,1594.00"/>
    </edge>
    <edge id=":5_46_8" function="internal">
        <lane id=":5_46_8_0" index="0" speed="25.00" length="12.04" width="1.00" shape="692.00,1599.50 704.00,1598.50"/>
    </edge>
    <edge id=":5_47_0" function="internal">
        <lane id=":5_47_0_0" index="0" speed="5.65" length="7.26" width="1.00" shape="696.50,1706.00 696.22,1704.03 695.38,1702.63 693.97,1701.78 692.00,1701.50"/>
    </edge>
    <edge id=":5_47_1" function="internal">
        <lane id=":5_47_1_0" index="0" speed="25.00" length="10.00" width="1.00" shape="696.50,1706.00 696.50,1696.00"/>
        <lane id=":5_47_1_1" index="1" speed="25.00" length="10.00" width="1.00" shape="697.50,1706.00 697.50,1696.00"/>
        <lane id=":5_47_1_2" index="2" speed="25.00" length="10.00" width="1.00" shape="698.50,1706.00 698.50,1696.00"/>
        <lane id=":5_47_1_3" index="3" speed="25.00" length="10.00" width="1.00" shape="699.50,1706.00 699.50,1696.00"/>
    </edge>
    <edge id=":5_47_5" function="internal">
        <lane id=":5_47_5_0" index="0" speed="25.00" length="12.00" width="1.00" shape="704.00,1701.50 692.00,1701.50"/>
        <lane id=":5_47_5_1" index="1" speed="25.00" length="12.00" width="1.00" shape="704.00,1700.50 692.00,1700.50"/>
    </edge>
    <edge id=":5_47_7" function="internal">
        <lane id=":5_47_7_0" index="0" speed="5.94" length="8.08" width="1.00" shape="704.00,1700.50 701.59,1700.22 699.88,1699.38 698.84,1697.97 698.50,1696.00"/>
    </edge>
    <edge id=":5_47_8" function="internal">
        <lane id=":5_47_8_0" index="0" speed="5.65" length="7.26" width="1.00" shape="704.00,1700.50 702.03,1700.22 700.63,1699.38 699.78,1697.97 699.50,1696.00"/>
    </edge>
    <edge id=":5_48_0" function="internal">
        <lane id=":5_48_0_0" index="0" speed="25.00" length="10.00" width="1.00" shape="696.50,1804.00 696.50,1794.00"/>