<routes>
<vType accel="1.0" decel="3.0" id="Bus" length="12.0" maxSpeed="10" sigma="0.0" />
<vType accel="5.0" decel="5.0" id="Car" length="3.0" maxSpeed="25" sigma="0.0" />
<route id="route1" edges="9_30to8_30 8_30to8_31 8_31to8_32 8_32to8_33 8_33to8_34 8_34to8_35 8_35to8_36 8_36to8_37 8_37to8_38 8_38to8_39 8_39to8_40 8_40to8_41 8_41to8_42 8_42to8_43 8_43to8_44 8_44to8_45 8_45to8_46 8_46to8_47 8_47to8_48 8_48to8_49 8_49to8_50 8_50to8_51 8_51to8_52 8_52to8_53 8_53to8_54 8_54to8_55 8_55to8_56 8_56to8_57 8_57to8_58"/>
<vehicle depart="1" id="veh2111" route="route1" type="Car"/>
<vehicle depart="1" id="veh2112" route="route1" type="Car"/>
<vehicle depart="1" id="veh2113" route="route1" type="Car"/>
<route id="route2" edges="9_30to8_30 8_30to8_31 8_31to8_32 8_32to8_33 8_33to8_34 8_34to8_35 8_35to8_36 8_36to8_37 8_37to8_38 8_38to8_39 8_39to8_40 8_40to8_41 8_41to8_42 8_42to8_43 8_43to8_44 8_44to8_45 8_45to8_46 8_46to8_47 8_47to8_48 8_48to8_49 8_49to8_50 8_50to8_51 8_51to8_52 8_52to8_53 8_53to8_54 8_54to8_55 8_55to8_56 8_56to8_57 8_57to8_58 8_58to7_58 7_58to6_58"/>
<vehicle depart="2" id="veh2" route="route2" type="Bus"/>
<route id="route3" edges="9_30to8_30 8_30to7_30 7_30to6_30 6_30to5_30"/>
<vehicle depart="3" id="veh3" route="route3" type="Car"/>
<route id="route4" edges="9_30to8_30 8_30to8_31 8_31to8_32 8_32to8_33 8_33to8_34 8_34to8_35 8_35to8_36 8_36to8_37 8_37to8_38 8_38to8_39 8_39to8_40 8_40to8_41 8_41to8_42 8_42to8_43 8_43to8_44 8_44to8_45 8_45to8_46 8_46to8_47 8_47to8_48 8_48to8_49 8_49to8_50 8_50to8_51 8_51to8_52 8_52to8_53 8_53to8_54 8_54to8_55 8_55to8_56 8_56to8_57 8_57to8_58 8_58to7_58 7_58to6_58 6_58to5_58 5_58toMadison_58"/>
<vehicle depart="4" id="veh4" route="route4" type="Bus"/>
<route id="route5" edges="9_30to8_30 8_30to7_30 7_30to6_30 6_30to5_30 5_30toMadison_30 Madison_30toPark_30"/>
<vehicle depart="5" id="veh5" route="route5" type="Car"/>
<route id="route6" edges="9_30to8_30 8_30to8_31 8_31to8_32 8_32to8_33 8_33to8_34 8_34to8_35 8_35to8_36 8_36to8_37 8_37to8_38 8_38to8_39 8_39to8_40 8_40to8_41 8_41to8_42 8_42to8_43 8_43to8_44 8_44to8_45 8_45to8_46 8_46to8_47 8_47to8_48 8_48to8_49 8_49to8_50 8_50to8_51 8_51to8_52 8_52to8_53 8_53to8_54 8_54to8_55 8_55to8_56 8_56to8_57 8_57to8_58 8_58to7_58 7_58to6_58 6_58to5_58 5_58toMadison_58 Madison_58toPark_58"/>
<vehicle depart="6" id="veh6" route="route6" type="Bus"/>
<route id="route7" edges="9_30to8_30 8_30to7_30 7_30to6_30 6_30to5_30 5_30toMadison_30 Madison_30toPark_30 Park_30toLexington_30"/>
<vehicle depart="7" id="veh7" route="route7" type="Car"/>
<route id="route8" edges="9_30to8_30 8_30to8_31 8_31to8_32 8_32to7_32 7_32to6_32 6_32to5_32 5_32toMadison_32 Madison_32toPark_32 Park_32toLexington_32"/>
<vehicle depart="8" id="veh8" route="route8" type="Bus"/>
<route id="route9" edges="9_30to8_30 8_30to8_31 8_31to8_32 8_32to8_33 8_33to8_34 8_34to7_34 7_34to6_34 6_34to5_34 5_34toMadison_34 Madison_34toPark_34 Park_34toLexington_34"/>
<vehicle depart="9" id="veh9" route="route9" type="Car"/>
<route id="route10" edges="9_30to8_30 8_30to8_31 8_31to8_32 8_32to8_33 8_33to8_34 8_34to8_35 8_35to8_36 8_36to7_36 7_36to6_36 6_36to5_36 5_36toMadison_36 Madison_36toPark_36 Park_36toLexington_36"/>
<vehicle depart="10" id="veh10" route="route10" type="Bus"/>
<route id="route11" edges="9_30to8_30 8_30to8_31 8_31to8_32 8_32to8_33 8_33to8_34 8_34to8_35 8_35to8_36 8_36to8_37 8_37to8_38 8_38to7_38 7_38to6_38 6_38to5_38 5_38toMadison_38 Madison_38toPark_38 Park_38toLexington_38"/>
<vehicle depart="11" id="veh11" route="route11" type="Car"/>
<route id="route12" edges="9_30to8_30 8_30to8_31 8_31to8_32 8_32to8_33 8_33to8_34 8_34to8_35 8_35to8_36 8_36to8_37 8_37to8_38 8_38to8_39 8_39to8_40 8_40to7_40 7_40to6_40 6_40to5_40 5_40toMadison_40 Madison_40toPark_40 Park_40toLexington_40"/>
<vehicle depart="12" id="veh12" route="route12" type="Bus"/>
<route id="route13" edges="9_30to8_30 8_30to8_31 8_31to8_32 8_32to8_33 8_33to8_34 8_34to8_35 8_35to8_36 8_36to8_37 8_37to8_38 8_38to8_39 8_39to8_40 8_40to8_41 8_41to8_42 8_42to7_42 7_42to6_42 6_42to5_42 5_42toMadison_42 Madison_42toPark_42 Park_42toLexington_42"/>
<vehicle depart="13" id="veh13" route="route13" type="Car"/>
<route id="route14" edges="9_30to8_30 8_30to8_31 8_31to8_32 8_32to8_33 8_33to8_34 8_34to8_35 8_35to8_36 8_36to8_37 8_37to8_38 8_38to8_39 8_39to8_40 8_40to8_41 8_41to8_42 8_42to8_43 8_43to8_44 8_44to7_44 7_44to6_44 6_44to5_44 5_44toMadison_44 Madison_44toPark_44 Park_44toLexington_44"/>
<vehicle depart="14" id="veh14" route="route14" type="Bus"/>
<route id="route15" edges="9_30to8_30 8_30to8_31 8_31to8_32 8_32to8_33 8_33to8_34 8_34to8_35 8_35to8_36 8_36to8_37 8_37to8_38 8_38to8_39 8_39to8_40 8_40to8_41 8_41to8_42 8_42to8_43 8_43to8_44 8_44to8_45 8_45to8_46 8_46to7_46 7_46to6_46 6_46to5_46 5_46toMadison_46 Madison_46toPark_46 Park_46toLexington_46"/>
<vehicle depart="15" id="veh15" route="route15" type="Car"/>
<route id="route16" edges="9_30to8_30 8_30to8_31 8_31to8_32 8_32to8_33 8_33to8_34 8_34to8_35 8_35to8_36 8_36to8_37 8_37to8_38 8_38to8_39 8_39to8_40 8_40to8_41 8_41to8_42 8_42to8_43 8_43to8_44 8_44to8_45 8_45to8_46 8_46to8_47 8_47to8_48 8_48to7_48 7_48to6_48 6_48to5_48 5_48toMadison_48 Madison_48toPark_48 Park_48toLexington_48"/>
<vehicle depart="16" id="veh16" route="route16" type="Bus"/>
<route id="route17" edges="9_30to8_30 8_30to8_31 8_31to8_32 8_32to8_33 8_33to8_34 8_34to8_35 8_35to8_36 8_36to8_37 8_37to8_38 8_38to8_39 8_39to8_40 8_40to8_41 8_41to8_42 8_42to8_43 8_43to8_44 8_44to8_45 8_45to8_46 8_46to8_47 8_47to8_48 8_48to8_49 8_49to8_50 8_50to7_50 7_50to6_50 6_50to5_50 5_50toMadison_50 Madison_50toPark_50 Park_50toLexington_50"/>
<vehicle depart="17" id="veh17" route="route17" type="Car"/>
<route id="route18" edges="9_30to8_30 8_30to8_31 8_31to8_32 8_32to8_33 8_33to8_34 8_34to8_35 8_35to8_36 8_36to8_37 8_37to8_38 8_38to8_39 8_39to8_40 8_40to8_41 8_41to8_42 8_42to8_43 8_43to8_44 8_44to8_45 8_45to8_46 8_46to8_47 8_47to8_48 8_48to8_49 8_49to8_50 8_50to8_51 8_51to8_52 8_52to7_52 7_52to6_52 6_52to5_52 5_52toMadison_52 Madison_52toPark_52 Park_52toLexington_52"/>
<vehicle depart="18" id="veh18" route="route18" type="Bus"/>
<route id="route19" edges="9_30to8_30 8_30to8_31 8_31to8_32 8_32to8_33 8_33to8_34 8_34to8_35 8_35to8_36 8_36to8_37 8_37to8_38 8_38to8_39 8_39to8_40 8_40to8_41 8_41to8_42 8_42to8_43 8_43to8_44 8_44to8_45 8_45to8_46 8_46to8_47 8_47to8_48 8_48to8_49 8_49to8_50 8_50to8_51 8_51to8_52 8_52to8_53 8_53to8_54 8_54to7_54 7_54to6_54 6_54to5_54 5_54toMadison_54 Madison_54toPark_54 Park_54toLexington_54"/>
<vehicle depart="19" id="veh19" route="route19" type="Car"/>
<route id="route20" edges="9_30to8_30 8_30to8_31 8_31to8_32 8_32to8_33 8_33to8_34 8_34to8_35 8_35to8_36 8_36to8_37 8_37to8_38 8_38to8_39 8_39to8_40 8_40to8_41 8_41to8_42 8_42to8_43 8_43to8_44 8_44to8_45 8_45to8_46 8_46to8_47 8_47to8_48 8_48to8_49 8_49to8_50 8_50to8_51 8_51to8_52 8_52to8_53 8_53to8_54 8_54to8_55 8_55to8_56 8_56to7_56 7_56to6_56 6_56to5_56 5_56toMadison_56 Madison_56toPark_56 Park_56toLexington_56"/>
<vehicle depart="20" id="veh20" route="route20" type="Bus"/>
<route id="route21" edges="9_30to8_30 8_30to8_31 8_31to8_32 8_32to8_33 8_33to8_34 8_34to8_35 8_35to8_36 8_36to8_37 8_37to8_38 8_38to8_39 8_39to8_40 8_40to8_41 8_41to8_42 8_42to8_43 8_43to8_44 8_44to8_45 8_45to8_46 8_46to8_47 8_47to8_48 8_48to8_49 8_49to8_50 8_50to8_51 8_51to8_52 8_52to8_53 8_53to8_54 8_54to8_55 8_55to8_56 8_56to8_57 8_57to7_57 7_57to6_57 6_57to5_57 5_57toMadison_57 Madison_57toPark_57 Park_57toLexington_57"/>
<vehicle depart="21" id="veh21" route="route21" type="Car"/>
<route id="route22" edges="9_30to8_30 8_30to8_31 8_31to8_32 8_32to8_33 8_33to8_34 8_34to8_35 8_35to8_36 8_36to8_37 8_37to8_38 8_38to8_39 8_39to8_40 8_40to8_41 8_41to8_42 8_42to8_43 8_43to8_44 8_44to8_45 8_45to8_46 8_46to8_47 8_47to8_48 8_48to8_49 8_49to8_50 8_50to8_51 8_51to8_52 8_52to8_53 8_53to8_54 8_54to8_55 8_55to8_56 8_56to8_57 8_57to8_58 8_58to7_58 7_58to6_58 6_58to5_58 5_58toMadison_58 Madison_58toPark_58 Park_58toLexington_58"/>
<vehicle depart="22" id="veh22" route="route22" type="Bus"/>
<route id="route23" edges="9_32to8_32 8_32to8_33 8_33to8_34 8_34to8_35 8_35to8_36 8_36to8_37 8_37to8_38 8_38to8_39 8_39to8_40 8_40to8_41 8_41to8_42 8_42to8_43 8_43to8_44 8_44to8_45 8_45to8_46 8_46to8_47 8_47to8_48 8_48to8_49 8_49to8_50 8_50to8_51 8_51to8_52 8_52to8_53 8_53to8_54 8_54to8_55 8_55to8_56 8_56to8_57 8_57to8_58"/>
<vehicle depart="23" id="veh23" route="route23" type="Car"/>
<route id="route24" edges="9_32to9_31 9_31to9_30 9_30to8_30 8_30to7_30"/>
<vehicle depart="24" id="veh24" route="route24" type="Bus"/>
<route id="route25" edges="9_32to8_32 8_32to8_33 8_33to8_34 8_34to8_35 8_35to8_36 8_36to8_37 8_37to8_38 8_38to8_39 8_39to8_40 8_40to8_41 8_41to8_42 8_42to8_43 8_43to8_44 8_44to8_45 8_45to8_46 8_46to8_47 8_47to8_48 8_48to8_49 8_49to8_50 8_50to8_51 8_51to8_52 8_52to8_53 8_53to8_54 8_54to8_55 8_55to8_56 8_56to8_57 8_57to8_58 8_58to7_58 7_58to6_58"/>
<vehicle depart="25" id="veh25" route="route25" type="Car"/>
<route id="route26" edges="9_32to9_31 9_31to9_30 9_30to8_30 8_30to7_30 7_30to6_30 6_30to5_30"/>
<vehicle depart="26" id="veh26" route="route26" type="Bus"/>
<route id="route27" edges="9_32to8_32 8_32to8_33 8_33to8_34 8_34to8_35 8_35to8_36 8_36to8_37 8_37to8_38 8_38to8_39 8_39to8_40 8_40to8_41 8_41to8_42 8_42to8_43 8_43to8_44 8_44to8_45 8_45to8_46 8_46to8_47 8_47to8_48 8_48to8_49 8_49to8_50 8_50to8_51 8_51to8_52 8_52to8_53 8_53to8_54 8_54to8_55 8_55to8_56 8_56to8_57 8_57to8_58 8_58to7_58 7_58to6_58 6_58to5_58 5_58toMadison_58"/>
<vehicle depart="27" id="veh27" route="route27" type="Car"/>
<route id="route28" edges="9_32to9_31 9_31to9_30 9_30to8_30 8_30to7_30 7_30to6_30 6_30to5_30 5_30toMadison_30 Madison_30toPark_30"/>
<vehicle depart="28" id="veh28" route="route28" type="Bus"/>
<route id="route29" edges="9_32to8_32 8_32to8_33 8_33to8_34 8_34to8_35 8_35to8_36 8_36to8_37 8_37to8_38 8_38to8_39 8_39to8_40 8_40to8_41 8_41to8_42 8_42to8_43 8_43to8_44 8_44to8_45 8_45to8_46 8_46to8_47 8_47to8_48 8_48to8_49 8_49to8_50 8_50to8_51 8_51to8_52 8_52to8_53 8_53to8_54 8_54to8_55 8_55to8_56 8_56to8_57 8_57to8_58 8_58to7_58 7_58to6_58 6_58to5_58 5_58toMadison_58 Madison_58toPark_58"/>
<vehicle depart="29" id="veh29" route="route29" type="Car"/>
<route id="route30" edges="9_32to9_31 9_31to9_30 9_30to8_30 8_30to7_30 7_30to6_30 6_30to5_30 5_30toMadison_30 Madison_30toPark_30 Park_30toLexington_30"/>
<vehicle depart="30" id="veh30" route="route30" type="Bus"/>
<route id="route31" edges="9_32to8_32 8_32to7_32 7_32to6_32 6_32to5_32 5_32toMadison_32 Madison_32toPark_32 Park_32toLexington_32"/>
<vehicle depart="31" id="veh31" route="route31" type="Car"/>
<route id="route32" edges="9_32to8_32 8_32to8_33 8_33to8_34 8_34to7_34 7_34to6_34 6_34to5_34 5_34toMadison_34 Madison_34toPark_34 Park_34toLexington_34"/>
<vehicle depart="32" id="veh32" route="route32" type="Bus"/>
<route id="route33" edges="9_32to8_32 8_32to8_33 8_33to8_34 8_34to8_35 8_35to8_36 8_36to7_36 7_36to6_36 6_36to5_36 5_36toMadison_36 Madison_36toPark_36 Park_36toLexington_36"/>
<vehicle depart="33" id="veh33" route="route33" type="Car"/>
<route id="route34" edges="9_32to8_32 8_32to8_33 8_33to8_34 8_34to8_35 8_35to8_36 8_36to8_37 8_37to8_38 8_38to7_38 7_38to6_38 6_38to5_38 5_38toMadison_38 Madison_38toPark_38 Park_38toLexington_38"/>
<vehicle depart="34" id="veh34" route="route34" type="Bus"/>
<route id="route35" edges="9_32to8_32 8_32to8_33 8_33to8_34 8_34to8_35 8_35to8_36 8_36to8_37 8_37to8_38 8_38to8_39 8_39to8_40 8_40to7_40 7_40to6_40 6_40to5_40 5_40toMadison_40 Madison_40toPark_40 Park_40toLexington_40"/>
<vehicle depart="35" id="veh35" route="route35" type="Car"/>
<route id="route36" edges="9_32to8_32 8_32to8_33 8_33to8_34 8_34to8_35 8_35to8_36 8_36to8_37 8_37to8_38 8_38to8_39 8_39to8_40 8_40to8_41 8_41to8_42 8_42to7_42 7_42to6_42 6_42to5_42 5_42toMadison_42 Madison_42toPark_42 Park_42toLexington_42"/>
<vehicle depart="36" id="veh36" route="route36" type="Bus"/>
<route id="route37" edges="9_32to8_32 8_32to8_33 8_33to8_34 8_34to8_35 8_35to8_36 8_36to8_37 8_37to8_38 8_38to8_39 8_39to8_40 8_40to8_41 8_41to8_42 8_42to8_43 8_43to8_44 8_44to7_44 7_44to6_44 6_44to5_44 5_44toMadison_44 Madison_44toPark_44 Park_44toLexington_44"/>
<vehicle depart="37" id="veh37" route="route37" type="Car"/>
<route id="route38" edges="9_32to8_32 8_32to8_33 8_33to8_34 8_34to8_35 8_35to8_36 8_36to8_37 8_37to8_38 8_38to8_39 8_39to8_40 8_40to8_41 8_41to8_42 8_42to8_43 8_43to8_44 8_44to8_45 8_45to8_46 8_46to7_46 7_46to6_46 6_46to5_46 5_46toMadison_46 Madison_46toPark_46 Park_46toLexington_46"/>
<vehicle depart="38" id="veh38" route="route38" type="Bus"/>
<route id="route39" edges="9_32to8_32 8_32to8_33 8_33to8_34 8_34to8_35 8_35to8_36 8_36to8_37 8_37to8_38 8_38to8_39 8_39to8_40 8_40to8_41 8_41to8_42 8_42to8_43 8_43to8_44 8_44to8_45 8_45to8_46 8_46to8_47 8_47to8_48 8_48to7_48 7_48to6_48 6_48to5_48 5_48toMadison_48 Madison_48toPark_48 Park_48toLexington_48"/>
<vehicle depart="39" id="veh39" route="route39" type="Car"/>
<route id="route40" edges="9_32to8_32 8_32to8_33 8_33to8_34 8_34to8_35 8_35to8_36 8_36to8_37 8_37to8_38 8_38to8_39 8_39to8_40 8_40to8_41 8_41to8_42 8_42to8_43 8_43to8_44 8_44to8_45 8_45to8_46 8_46to8_47 8_47to8_48 8_48to8_49 8_49to8_50 8_50to7_50 7_50to6_50 6_50to5_50 5_50toMadison_50 Madison_50toPark_50 Park_50toLexington_50"/>
<vehicle depart="40" id="veh40" route="route40" type="Bus"/>
<route id="route41" edges="9_32to8_32 8_32to8_33 8_33to8_34 8_34to8_35 8_35to8_36 8_36to8_37 8_37to8_38 8_38to8_39 8_39to8_40 8_40to8_41 8_41to8_42 8_42to8_43 8_43to8_44 8_44to8_45 8_45to8_46 8_46to8_47 8_47to8_48 8_48to8_49 8_49to8_50 8_50to8_51 8_51to8_52 8_52to7_52 7_52to6_52 6_52to5_52 5_52toMadison_52 Madison_52toPark_52 Park_52toLexington_52"/>
<vehicle depart="41" id="veh41" route="route41" type="Car"/>
<route id="route42" edges="9_32to8_32 8_32to8_33 8_33to8_34 8_34to8_35 8_35to8_36 8_36to8_37 8_37to8_38 8_38to8_39 8_39to8_40 8_40to8_41 8_41to8_42 8_42to8_43 8_43to8_44 8_44to8_45 8_45to8_46 8_46to8_47 8_47to8_48 8_48to8_49 8_49to8_50 8_50to8_51 8_51to8_52 8_52to8_53 8_53to8_54 8_54to7_54 7_54to6_54 6_54to5_54 5_54toMadison_54 Madison_54toPark_54 Park_54toLexington_54"/>
<vehicle depart="42" id="veh42" route="route42" type="Bus"/>
<route id="route43" edges="9_32to8_32 8_32to8_33 8_33to8_34 8_34to8_35 8_35to8_36 8_36to8_37 8_37to8_38 8_38to8_39 8_39to8_40 8_40to8_41 8_41to8_42 8_42to8_43 8_43to8_44 8_44to8_45 8_45to8_46 8_46to8_47 8_47to8_48 8_48to8_49 8_49to8_50 8_50to8_51 8_51to8_52 8_52to8_53 8_53to8_54 8_54to8_55 8_55to8_56 8_56to7_56 7_56to6_56 6_56to5_56 5_56toMadison_56 Madison_56toPark_56 Park_56toLexington_56"/>
<vehicle depart="43" id="veh43" route="route43" type="Car"/>
<route id="route44" edges="9_32to8_32 8_32to8_33 8_33to8_34 8_34to8_35 8_35to8_36 8_36to8_37 8_37to8_38 8_38to8_39 8_39to8_40 8_40to8_41 8_41to8_42 8_42to8_43 8_43to8_44 8_44to8_45 8_45to8_46 8_46to8_47 8_47to8_48 8_48to8_49 8_49to8_50 8_50to8_51 8_51to8_52 8_52to8_53 8_53to8_54 8_54to8_55 8_55to8_56 8_56to8_57 8_57to7_57 7_57to6_57 6_57to5_57 5_57toMadison_57 Madison_57toPark_57 Park_57toLexington_57"/>
<vehicle depart="44" id="veh44" route="route44" type="Bus"/>
<route id="route45" edges="9_32to8_32 8_32to8_33 8_33to8_34 8_34to8_35 8_35to8_36 8_36to8_37 8_37to8_38 8_38to8_39 8_39to8_40 8_40to8_41 8_41to8_42 8_42to8_43 8_43to8_44 8_44to8_45 8_45to8_46 8_46to8_47 8_47to8_48 8_48to8_49 8_49to8_50 8_50to8_51 8_51to8_52 8_52to8_53 8_53to8_54 8_54to8_55 8_55to8_56 8_56to8_57 8_57to8_58 8_58to7_58 7_58to6_58 6_58to5_58 5_58toMadison_58 Madison_58toPark_58 Park_58toLexington_58"/>
<vehicle depart="45" id="veh45" route="route45" type="Car"/>
<route id="route46" edges="9_34to8_34 8_34to8_35 8_35to8_36 8_36to8_37 8_37to8_38 8_38to8_39 8_39to8_40 8_40to8_41 8_41to8_42 8_42to8_43 8_43to8_44 8_44to8_45 8_45to8_46 8_46to8_47 8_47to8_48 8_48to8_49 8_49to8_50 8_50to8_51 8_51to8_52 8_52to8_53 8_53to8_54 8_54to8_55 8_55to8_56 8_56to8_57 8_57to8_58"/>
<vehicle depart="46" id="veh46" route="route46" type="Bus"/>
<route id="route47" edges="9_34to9_33 9_33to9_32 9_32to9_31 9_31to9_30 9_30to8_30 8_30to7_30"/>
<vehicle depart="47" id="veh47" route="route47" type="Car"/>
<route id="route48" edges="9_34to8_34 8_34to8_35 8_35to8_36 8_36to8_37 8_37to8_38 8_38to8_39 8_39to8_40 8_40to8_41 8_41to8_42 8_42to8_43 8_43to8_44 8_44to8_45 8_45to8_46 8_46to8_47 8_47to8_48 8_48to8_49 8_49to8_50 8_50to8_51 8_51to8_52 8_52to8_53 8_53to8_54 8_54to8_55 8_55to8_56 8_56to8_57 8_57to8_58 8_58to7_58 7_58to6_58"/>
<vehicle depart="48" id="veh48" route="route48" type="Bus"/>
<route id="route49" edges="9_34to9_33 9_33to9_32 9_32to9_31 9_31to9_30 9_30to8_30 8_30to7_30 7_30to6_30 6_30to5_30"/>
<vehicle depart="49" id="veh49" route="route49" type="Car"/>
<route id="route50" edges="9_34to8_34 8_34to8_35 8_35to8_36 8_36to8_37 8_37to8_38 8_38to8_39 8_39to8_40 8_40to8_41 8_41to8_42 8_42to8_43 8_43to8_44 8_44to8_45 8_45to8_46 8_46to8_47 8_47to8_48 8_48to8_49 8_49to8_50 8_50to8_51 8_51to8_52 8_52to8_53 8_53to8_54 8_54to8_55 8_55to8_56 8_56to8_57 8_57to8_58 8_58to7_58 7_58to6_58 6_58to5_58 5_58toMadison_58"/>
<vehicle depart="50" id="veh50" route="route50" type="Bus"/>
<route id="route51" edges="9_34to9_33 9_33to9_32 9_32to9_31 9_31to9_30 9_30to8_30 8_30to7_30 7_30to6_30 6_30to5_30 5_30toMadison_30 Madison_30toPark_30"/>
<vehicle depart="51" id="veh51" route="route51" type="Car"/>
<route id="route52" edges="9_34to8_34 8_34to8_35 8_35to8_36 8_36to8_37 8_37to8_38 8_38to8_39 8_39to8_40 8_40to8_41 8_41to8_42 8_42to8_43 8_43to8_44 8_44to8_45 8_45to8_46 8_46to8_47 8_47to8_48 8_48to8_49 8_49to8_50 8_50to8_51 8_51to8_52 8_52to8_53 8_53to8_54 8_54to8_55 8_55to8_56 8_56to8_57 8_57to8_58 8_58to7_58 7_58to6_58 6_58to5_58 5_58toMadison_58 Madison_58toPark_58"/>
<vehicle depart="52" id="veh52" route="route52" type="Bus"/>
<route id="route53" edges="9_34to9_33 9_33to9_32 9_32to9_31 9_31to9_30 9_30to8_30 8_30to7_30 7_30to6_30 6_30to5_30 5_30toMadison_30 Madison_30toPark_30 Park_30toLexington_30"/>
<vehicle depart="53" id="veh53" route="route53" type="Car"/>
<route id="route54" edges="9_34to9_33 9_33to9_32 9_32to8_32 8_32to7_32 7_32to6_32 6_32to5_32 5_32toMadison_32 Madison_32toPark_32 Park_32toLexington_32"/>
<vehicle depart="54" id="veh54" route="route54" type="Bus"/>
<route id="route55" edges="9_34to8_34 8_34to7_34 7_34to6_34 6_34to5_34 5_34toMadison_34 Madison_34toPark_34 Park_34toLexington_34"/>
<vehicle depart="55" id="veh55" route="route55" type="Car"/>
<route id="route56" edges="9_34to8_34 8_34to8_35 8_35to8_36 8_36to7_36 7_36to6_36 6_36to5_36 5_36toMadison_36 Madison_36toPark_36 Park_36toLexington_36"/>
<vehicle depart="56" id="veh56" route="route56" type="Bus"/>
<route id="route57" edges="9_34to8_34 8_34to8_35 8_35to8_36 8_36to8_37 8_37to8_38 8_38to7_38 7_38to6_38 6_38to5_38 5_38toMadison_38 Madison_38toPark_38 Park_38toLexington_38"/>
<vehicle depart="57" id="veh57" route="route57" type="Car"/>
<route id="route58" edges="9_34to8_34 8_34to8_35 8_35to8_36 8_36to8_37 8_37to8_38 8_38to8_39 8_39to8_40 8_40to7_40 7_40to6_40 6_40to5_40 5_40toMadison_40 Madison_40toPark_40 Park_40toLexington_40"/>
<vehicle depart="58" id="veh58" route="route58" type="Bus"/>
<route id="route59" edges="9_34to8_34 8_34to8_35 8_35to8_36 8_36to8_37 8_37to8_38 8_38to8_39 8_39to8_40 8_40to8_41 8_41to8_42 8_42to7_42 7_42to6_42 6_42to5_42 5_42toMadison_42 Madison_42toPark_42 Park_42toLexington_42"/>
<vehicle depart="59" id="veh59" route="route59" type="Car"/>
<route id="route60" edges="9_34to8_34 8_34to8_35 8_35to8_36 8_36to8_37 8_37to8_38 8_38to8_39 8_39to8_40 8_40to8_41 8_41to8_42 8_42to8_43 8_43to8_44 8_44to7_44 7_44to6_44 6_44to5_44 5_44toMadison_44 Madison_44toPark_44 Park_44toLexington_44"/>
<vehicle depart="60" id="veh60" route="route60" type="Bus"/>
<route id="route61" edges="9_34to8_34 8_34to8_35 8_35to8_36 8_36to8_37 8_37to8_38 8_38to8_39 8_39to8_40 8_40to8_41 8_41to8_42 8_42to8_43 8_43to8_44 8_44to8_45 8_45to8_46 8_46to7_46 7_46to6_46 6_46to5_46 5_46toMadison_46 Madison_46toPark_46 Park_46toLexington_46"/>
<vehicle depart="61" id="veh61" route="route61" type="Car"/>
<route id="route62" edges="9_34to8_34 8_34to8_35 8_35to8_36 8_36to8_37 8_37to8_38 8_38to8_39 8_39to8_40 8_40to8_41 8_41to8_42 8_42to8_43 8_43to8_44 8_44to8_45 8_45to8_46 8_46to8_47 8_47to8_48 8_48to7_48 7_48to6_48 6_48to5_48 5_48toMadison_48 Madison_48toPark_48 Park_48toLexington_48"/>
<vehicle depart="62" id="veh62" route="route62" type="Bus"/>
<route id="route63" edges="9_34to8_34 8_34to8_35 8_35to8_36 8_36to8_37 8_37to8_38 8_38to8_39 8_39to8_40 8_40to8_41 8_41to8_42 8_42to8_43 8_43to8_44 8_44to8_45 8_45to8_46 8_46to8_47 8_47to8_48 8_48to8_49 8_49to8_50 8_50to7_50 7_50to6_50 6_50to5_50 5_50toMadison_50 Madison_50toPark_50 Park_50toLexington_50"/>
<vehicle depart="63" id="veh63" route="route63" type="Car"/>
<route id="route64" edges="9_34to8_34 8_34to8_35 8_35to8_36 8_36to8_37 8_37to8_38 8_38to8_39 8_39to8_40 8_40to8_41 8_41to8_42 8_42to8_43 8_43to8_44 8_44to8_45 8_45to8_46 8_46to8_47 8_47to8_48 8_48to8_49 8_49to8_50 8_50to8_51 8_51to8_52 8_52to7_52 7_52to6_52 6_52to5_52 5_52toMadison_52 Madison_52toPark_52 Park_52toLexington_52"/>
<vehicle depart="64" id="veh64" route="route64" type="Bus"/>
<route id="route65" edges="9_34to8_34 8_34to8_35 8_35to8_36 8_36to8_37 8_37to8_38 8_38to8_39 8_39to8_40 8_40to8_41 8_41to8_42 8_42to8_43 8_43to8_44 8_44to8_45 8_45to8_46 8_46to8_47 8_47to8_48 8_48to8_49 8_49to8_50 8_50to8_51 8_51to8_52 8_52to8_53 8_53to8_54 8_54to7_54 7_54to6_54 6_54to5_54 5_54toMadison_54 Madison_54toPark_54 Park_54toLexington_54"/>
<vehicle depart="65" id="veh65" route="route65" type="Car"/>
<route id="route66" edges="9_34to8_34 8_34to8_35 8_35to8_36 8_36to8_37 8_37to8_38 8_38to8_39 8_39to8_40 8_40to8_41 8_41to8_42 8_42to8_43 8_43to8_44 8_44to8_45 8_45to8_46 8_46to8_47 8_47to8_48 8_48to8_49 8_49to8_50 8_50to8_51 8_51to8_52 8_52to8_53 8_53to8_54 8_54to8_55 8_55to8_56 8_56to7_56 7_56to6_56 6_56to5_56 5_56toMadison_56 Madison_56toPark_56 Park_56toLexington_56"/>
<vehicle depart="66" id="veh66" route="route66" type="Bus"/>
<route id="route67" edges="9_34to8_34 8_34to8_35 8_35to8_36 8_36to8_37 8_37to8_38 8_38to8_39 8_39to8_40 8_40to8_41 8_41to8_42 8_42to8_43 8_43to8_44 8_44to8_45 8_45to8_46 8_46to8_47 8_47to8_48 8_48to8_49 8_49to8_50 8_50to8_51 8_51to8_52 8_52to8_53 8_53to8_54 8_54to8_55 8_55to8_56 8_56to8_57 8_57to7_57 7_57to6_57 6_57to5_57 5_57toMadison_57 Madison_57toPark_57 Park_57toLexington_57"/>
<vehicle depart="67" id="veh67" route="route67" type="Car"/>
<route id="route68" edges="9_34to8_34 8_34to8_35 8_35to8_36 8_36to8_37 8_37to8_38 8_38to8_39 8_39to8_40 8_40to8_41 8_41to8_42 8_42to8_43 8_43to8_44 8_44to8_45 8_45to8_46 8_46to8_47 8_47to8_48 8_48to8_49 8_49to8_50 8_50to8_51 8_51to8_52 8_52to8_53 8_53to8_54 8_54to8_55 8_55to8_56 8_56to8_57 8_57to8_58 8_58to7_58 7_58to6_58 6_58to5_58 5_58toMadison_58 Madison_58toPark_58 Park_58toLexington_58"/>
<vehicle depart="68" id="veh68" route="route68" type="Bus"/>
<route id="route69" edges="9_36to9_35 9_35to9_34 9_34to9_33 9_33to9_32 9_32to9_31"/>
<vehicle depart="69" id="veh69" route="route69" type="Car"/>
<route id="route70" edges="9_36to8_36 8_36to8_37 8_37to8_38 8_38to8_39 8_39to8_40 8_40to8_41 8_41to8_42 8_42to8_43 8_43to8_44 8_44to8_45 8_45to8_46 8_46to8_47 8_47to8_48 8_48to8_49 8_49to8_50 8_50to8_51 8_51to8_52 8_52to8_53 8_53to8_54 8_54to8_55 8_55to8_56 8_56to8_57 8_57to8_58"/>
<vehicle depart="70" id="veh70" route="route70" type="Bus"/>
<route id="route71" edges="9_36to9_35 9_35to9_34 9_34to9_33 9_33to9_32 9_32to9_31 9_31to9_30 9_30to8_30 8_30to7_30"/>
<vehicle depart="71" id="veh71" route="route71" type="Car"/>
<route id="route72" edges="9_36to8_36 8_36to8_37 8_37to8_38 8_38to8_39 8_39to8_40 8_40to8_41 8_41to8_42 8_42to8_43 8_43to8_44 8_44to8_45 8_45to8_46 8_46to8_47 8_47to8_48 8_48to8_49 8_49to8_50 8_50to8_51 8_51to8_52 8_52to8_53 8_53to8_54 8_54to8_55 8_55to8_56 8_56to8_57 8_57to8_58 8_58to7_58 7_58to6_58"/>
<vehicle depart="72" id="veh72" route="route72" type="Bus"/>
<route id="route73" edges="9_36to9_35 9_35to9_34 9_34to9_33 9_33to9_32 9_32to9_31 9_31to9_30 9_30to8_30 8_30to7_30 7_30to6_30 6_30to5_30"/>
<vehicle depart="73" id="veh73" route="route73" type="Car"/>
<route id="route74" edges="9_36to8_36 8_36to8_37 8_37to8_38 8_38to8_39 8_39to8_40 8_40to8_41 8_41to8_42 8_42to8_43 8_43to8_44 8_44to8_45 8_45to8_46 8_46to8_47 8_47to8_48 8_48to8_49 8_49to8_50 8_50to8_51 8_51to8_52 8_52to8_53 8_53to8_54 8_54to8_55 8_55to8_56 8_56to8_57 8_57to8_58 8_58to7_58 7_58to6_58 6_58to5_58 5_58toMadison_58"/>
<vehicle depart="74" id="veh74" route="route74" type="Bus"/>
<route id="route75" edges="9_36to9_35 9_35to9_34 9_34to9_33 9_33to9_32 9_32to9_31 9_31to9_30 9_30to8_30 8_30to7_30 7_30to6_30 6_30to5_30 5_30toMadison_30 Madison_30toPark_30"/>
<vehicle depart="75" id="veh75" route="route75" type="Car"/>
<route id="route76" edges="9_36to8_36 8_36to8_37 8_37to8_38 8_38to8_39 8_39to8_40 8_40to8_41 8_41to8_42 8_42to8_43 8_43to8_44 8_44to8_45 8_45to8_46 8_46to8_47 8_47to8_48 8_48to8_49 8_49to8_50 8_50to8_51 8_51to8_52 8_52to8_53 8_53to8_54 8_54to8_55 8_55to8_56 8_56to8_57 8_57to8_58 8_58to7_58 7_58to6_58 6_58to5_58 5_58toMadison_58 Madison_58toPark_58"/>
<vehicle depart="76" id="veh76" route="route76" type="Bus"/>
<route id="route77" edges="9_36to9_35 9_35to9_34 9_34to9_33 9_33to9_32 9_32to9_31 9_31to9_30 9_30to8_30 8_30to7_30 7_30to6_30 6_30to5_30 5_30toMadison_30 Madison_30toPark_30 Park_30toLexington_30"/>
<vehicle depart="77" id="veh77" route="route77" type="Car"/>
<route id="route78" edges="9_36to9_35 9_35to9_34 9_34to9_33 9_33to9_32 9_32to8_32 8_32to7_32 7_32to6_32 6_32to5_32 5_32toMadison_32 Madison_32toPark_32 Park_32toLexington_32"/>
<vehicle depart="78" id="veh78" route="route78" type="Bus"/>
<route id="route79" edges="9_36to9_35 9_35to9_34 9_34to8_34 8_34to7_34 7_34to6_34 6_34to5_34 5_34toMadison_34 Madison_34toPark_34 Park_34toLexington_34"/>
<vehicle depart="79" id="veh79" route="route79" type="Car"/>
<route id="route80" edges="9_36to8_36 8_36to7_36 7_36to6_36 6_36to5_36 5_36toMadison_36 Madison_36toPark_36 Park_36toLexington_36"/>
<vehicle depart="80" id="veh80" route="route80" type="Bus"/>
<route id="route81" edges="9_36to8_36 8_36to8_37 8_37to8_38 8_38to7_38 7_38to6_38 6_38to5_38 5_38toMadison_38 Madison_38toPark_38 Park_38toLexington_38"/>
<vehicle depart="81" id="veh81" route="route81" type="Car"/>
<route id="route82" edges="9_36to8_36 8_36to8_37 8_37to8_38 8_38to8_39 8_39to8_40 8_40to7_40 7_40to6_40 6_40to5_40 5_40toMadison_40 Madison_40toPark_40 Park_40toLexington_40"/>
<vehicle depart="82" id="veh82" route="route82" type="Bus"/>
<route id="route83" edges="9_36to8_36 8_36to8_37 8_37to8_38 8_38to8_39 8_39to8_40 8_40to8_41 8_41to8_42 8_42to7_42 7_42to6_42 6_42to5_42 5_42toMadison_42 Madison_42toPark_42 Park_42toLexington_42"/>
<vehicle depart="83" id="veh83" route="route83" type="Car"/>
<route id="route84" edges="9_36to8_36 8_36to8_37 8_37to8_38 8_38to8_39 8_39to8_40 8_40to8_41 8_41to8_42 8_42to8_43 8_43to8_44 8_44to7_44 7_44to6_44 6_44to5_44 5_44toMadison_44 Madison_44toPark_44 Park_44toLexington_44"/>
<vehicle depart="84" id="veh84" route="route84" type="Bus"/>
<route id="route85" edges="9_36to8_36 8_36to8_37 8_37to8_38 8_38to8_39 8_39to8_40 8_40to8_41 8_41to8_42 8_42to8_43 8_43to8_44 8_44to8_45 8_45to8_46 8_46to7_46 7_46to6_46 6_46to5_46 5_46toMadison_46 Madison_46toPark_46 Park_46toLexington_46"/>
<vehicle depart="85" id="veh85" route="route85" type="Car"/>
<route id="route86" edges="9_36to8_36 8_36to8_37 8_37to8_38 8_38to8_39 8_39to8_40 8_40to8_41 8_41to8_42 8_42to8_43 8_43to8_44 8_44to8_45 8_45to8_46 8_46to8_47 8_47to8_48 8_48to7_48 7_48to6_48 6_48to5_48 5_48toMadison_48 Madison_48toPark_48 Park_48toLexington_48"/>
<vehicle depart="86" id="veh86" route="route86" type="Bus"/>
<route id="route87" edges="9_36to8_36 8_36to8_37 8_37to8_38 8_38to8_39 8_39to8_40 8_40to8_41 8_41to8_42 8_42to8_43 8_43to8_44 8_44to8_45 8_45to8_46 8_46to8_47 8_47to8_48 8_48to8_49 8_49to8_50 8_50to7_50 7_50to6_50 6_50to5_50 5_50toMadison_50 Madison_50toPark_50 Park_50toLexington_50"/>
<vehicle depart="87" id="veh87" route="route87" type="Car"/>
<route id="route88" edges="9_36to8_36 8_36to8_37 8_37to8_38 8_38to8_39 8_39to8_40 8_40to8_41 8_41to8_42 8_42to8_43 8_43to8_44 8_44to8_45 8_45to8_46 8_46to8_47 8_47to8_48 8_48to8_49 8_49to8_50 8_50to8_51 8_51to8_52 8_52to7_52 7_52to6_52 6_52to5_52 5_52toMadison_52 Madison_52toPark_52 Park_52toLexington_52"/>
<vehicle depart="88" id="veh88" route="route88" type="Bus"/>
<route id="route89" edges="9_36to8_36 8_36to8_37 8_37to8_38 8_38to8_39 8_39to8_40 8_40to8_41 8_41to8_42 8_42to8_43 8_43to8_44 8_44to8_45 8_45to8_46 8_46to8_47 8_47to8_48 8_48to8_49 8_49to8_50 8_50to8_51 8_51to8_52 8_52to8_53 8_53to8_54 8_54to7_54 7_54to6_54 6_54to5_54 5_54toMadison_54 Madison_54toPark_54 Park_54toLexington_54"/>
<vehicle depart="89" id="veh89" route="route89" type="Car"/>
<route id="route90" edges="9_36to8_36 8_36to8_37 8_37to8_38 8_38to8_39 8_39to8_40 8_40to8_41 8_41to8_42 8_42to8_43 8_43to8_44 8_44to8_45 8_45to8_46 8_46to8_47 8_47to8_48 8_48to8_49 8_49to8_50 8_50to8_51 8_51to8_52 8_52to8_53 8_53to8_54 8_54to8_55 8_55to8_56 8_56to7_56 7_56to6_56 6_56to5_56 5_56toMadison_56 Madison_56toPark_56 Park_56toLexington_56"/>
<vehicle depart="90" id="veh90" route="route90" type="Bus"/>
<route id="route91" edges="9_36to8_36 8_36to8_37 8_37to8_38 8_38to8_39 8_39to8_40 8_40to8_41 8_41to8_42 8_42to8_43 8_43to8_44 8_44to8_45 8_45to8_46 8_46to8_47 8_47to8_48 8_48to8_49 8_49to8_50 8_50to8_51 8_51to8_52 8_52to8_53 8_53to8_54 8_54to8_55 8_55to8_56 8_56to8_57 8_57to7_57 7_57to6_57 6_57to5_57 5_57toMadison_57 Madison_57toPark_57 Park_57toLexington_57"/>
<vehicle depart="91" id="veh91" route="route91" type="Car"/>