<?xml version="1.0" encoding="UTF-8"?>
<!-- generated on 2021-03-30 19:15:41.442951 by $Id$ v1_8_0+0044-4820708f3d
  options: -n my_net.net.xml -r my_route.rou.xml -e 50 -l
-->
<routes xmlns:xsi="http://www.w3.org/2001/XMLSchema-instance" xsi:noNamespaceSchemaLocation="http://sumo.dlr.de/xsd/routes_file.xsd">
    <trip id="0" depart="0.00" from="9_50to9_49" to="5_37to5_36"/>
    <trip id="1" depart="1.00" from="7_36to7_35" to="6_55to7_55"/>
    <trip id="2" depart="2.00" from="Lexington_53toLexington_54" to="Lexington_33toLexington_34"/>
    <trip id="3" depart="3.00" from="Park_38toLexington_38" to="5_54toMadison_54"/>
    <trip id="4" depart="4.00" from="8_34to7_34" to="5_38toMadison_38"/>
    <trip id="5" depart="5.00" from="6_54to6_55" to="8_48to7_48"/>
    <trip id="6" depart="6.00" from="5_37to6_37" to="6_50to5_50"/>
    <trip id="7" depart="7.00" from="9_54to8_54" to="8_55to9_55"/>
    <trip id="8" depart="8.00" from="6_55to7_55" to="9_36to9_35"/>
    <trip id="9" depart="9.00" from="Madison_47to5_47" to="5_32to5_31"/>
    <trip id="10" depart="10.00" from="Madison_45toMadison_46" to="Lexington_41toLexington_42"/>
    <trip id="11" depart="11.00" from="7_48to6_48" to="6_41to6_42"/>
    <trip id="12" depart="12.00" from="Park_50toPark_49" to="7_47to8_47"/>
    <trip id="13" depart="13.00" from="5_56toMadison_56" to="5_57to6_57"/>
    <trip id="14" depart="14.00" from="Madison_57toPark_57" to="9_40to9_39"/>
    <trip id="15" depart="15.00" from="Madison_46toMadison_47" to="Lexington_52toLexington_53"/>
    <trip id="16" depart="16.00" from="8_54to7_54" to="Park_53toPark_54"/>
    <trip id="17" depart="17.00" from="7_55to8_55" to="8_56to8_57"/>
    <trip id="18" depart="18.00" from="Madison_52toPark_52" to="9_44to9_43"/>
    <trip id="19" depart="19.00" from="Park_32toPark_31" to="9_33to9_32"/>
    <trip id="20" depart="20.00" from="Lexington_41toPark_41" to="5_42toMadison_42"/>
    <trip id="21" depart="21.00" from="6_57to5_57" to="7_39to8_39"/>
    <trip id="22" depart="22.00" from="5_52toMadison_52" to="6_57to7_57"/>
    <trip id="23" depart="23.00" from="5_58toMadison_58" to="7_37to8_37"/>
    <trip id="24" depart="24.00" from="9_50to8_50" to="7_52to7_51"/>
    <trip id="25" depart="25.00" from="7_54to6_54" to="6_52to6_53"/>
    <trip id="26" depart="26.00" from="7_35to8_35" to="Park_46toPark_47"/>
    <trip id="27" depart="27.00" from="9_53to9_52" to="9_42to8_42"/>
    <trip id="28" depart="28.00" from="6_43to7_43" to="Lexington_51toPark_51"/>
    <trip id="29" depart="29.00" from="6_42to7_42" to="7_55to8_55"/>
    <trip id="30" depart="30.00" from="Park_56toPark_55" to="9_50to9_49"/>
    <trip id="31" depart="31.00" from="8_57to8_58" to="Lexington_35toPark_35"/>
    <trip id="32" depart="32.00" from="Madison_56toPark_56" to="Madison_38toMadison_39"/>
    <trip id="33" depart="33.00" from="6_57to6_58" to="5_39to5_38"/>
    <trip id="34" depart="34.00" from="7_43to8_43" to="7_35to8_35"/>
    <trip id="35" depart="35.00" from="6_53to6_54" to="Park_47toPark_48"/>
    <trip id="36" depart="36.00" from="Park_34toPark_35" to="7_43to8_43"/>
    <trip id="37" depart="37.00" from="9_55to9_54" to="7_58to6_58"/>
    <trip id="38" depart="38.00" from="Park_42toMadison_42" to="8_40to7_40"/>
    <trip id="39" depart="39.00" from="7_35to7_34" to="7_32to6_32"/>
    <trip id="40" depart="40.00" from="8_58to7_58" to="7_34to8_34"/>
    <trip id="41" depart="41.00" from="9_36to8_36" to="Park_39toPark_38"/>
    <trip id="42" depart="42.00" from="7_58to7_57" to="6_55to6_56"/>
    <trip id="43" depart="43.00" from="Park_57toPark_58" to="8_48to8_49"/>
    <trip id="44" depart="44.00" from="5_56to5_55" to="5_43to5_42"/>
    <trip id="45" depart="45.00" from="6_31to7_31" to="9_47to9_46"/>
    <trip id="46" depart="46.00" from="Madison_42to5_42" to="8_33to9_33"/>
    <trip id="47" depart="47.00" from="5_48to5_47" to="7_56to6_56"/>
    <trip id="48" depart="48.00" from="Park_57toPark_56" to="8_52to7_52"/>
    <trip id="49" depart="49.00" from="Park_53toMadison_53" to="Park_32toPark_33"/>
</routes>
