<?xml version="1.0" encoding="UTF-8"?>

<!-- generated on 04/18/21 13:49:47 by Eclipse SUMO netconvert Version 1.8.0
<configuration xmlns:xsi="http://www.w3.org/2001/XMLSchema-instance" xsi:noNamespaceSchemaLocation="http://sumo.dlr.de/xsd/netconvertConfiguration.xsd">

    <input>
        <node-files value="my_nodes.nod.xml"/>
        <edge-files value="my_edge.edg.xml"/>
        <type-files value="my_type.type.xml"/>
    </input>

    <output>
        <output-file value="my_net.net.xml"/>
    </output>

    <report>
        <aggregate-warnings value="5"/>
    </report>

</configuration>
-->

<net version="1.6" junctionCornerDetail="5" limitTurnSpeed="5.50" xmlns:xsi="http://www.w3.org/2001/XMLSchema-instance" xsi:noNamespaceSchemaLocation="http://sumo.dlr.de/xsd/net_file.xsd">

    <location netOffset="0.00,0.00" convBoundary="0.00,0.00,1000.00,2800.00" origBoundary="0.00,0.00,1000.00,2800.00" projParameter="!"/>

    <type id="2L25" priority="2" numLanes="2" speed="25.00"/>
    <type id="3L25" priority="3" numLanes="3" speed="25.00"/>
    <type id="4L25" priority="3" numLanes="4" speed="25.00"/>

    <edge id=":5_30_0" function="internal">
        <lane id=":5_30_0_0" index="0" speed="9.32" length="19.63" shape="688.80,4.00 689.75,0.15 692.60,-2.60 697.35,-4.25 704.00,-4.80"/>
    </edge>
    <edge id=":5_30_1" function="internal">
        <lane id=":5_30_1_0" index="0" speed="8.10" length="14.57" shape="692.00,4.00 692.75,1.55 695.00,-0.20 698.75,-1.25 704.00,-1.60"/>
    </edge>
    <edge id=":5_30_2" function="internal">
        <lane id=":5_30_2_0" index="0" speed="25.00" length="20.80" shape="683.20,-4.80 704.00,-4.80"/>
        <lane id=":5_30_2_1" index="1" speed="25.00" length="20.80" shape="683.20,-1.60 704.00,-1.60"/>
    </edge>
    <edge id=":5_31_0" function="internal">
        <lane id=":5_31_0_0" index="0" speed="6.51" length="9.03" shape="688.80,110.40 688.45,107.95 687.40,106.20 685.65,105.15 683.20,104.80"/>
    </edge>
    <edge id=":5_31_1" function="internal">
        <lane id=":5_31_1_0" index="0" speed="25.00" length="14.40" shape="688.80,110.40 688.80,96.00"/>
        <lane id=":5_31_1_1" index="1" speed="25.00" length="14.40" shape="692.00,110.40 692.00,96.00"/>
        <lane id=":5_31_1_2" index="2" speed="25.00" length="14.40" shape="695.20,110.40 695.20,96.00"/>
        <lane id=":5_31_1_3" index="3" speed="25.00" length="14.40" shape="698.40,110.40 698.40,96.00"/>
    </edge>
    <edge id=":5_31_5" function="internal">
        <lane id=":5_31_5_0" index="0" speed="25.00" length="20.80" shape="704.00,104.80 683.20,104.80"/>
        <lane id=":5_31_5_1" index="1" speed="25.00" length="20.80" shape="704.00,101.60 683.20,101.60"/>
    </edge>
    <edge id=":5_31_7" function="internal">
        <lane id=":5_31_7_0" index="0" speed="7.33" length="11.73" shape="704.00,101.60 700.15,101.25 697.40,100.20 695.75,98.45 695.20,96.00"/>
    </edge>
    <edge id=":5_31_8" function="internal">
        <lane id=":5_31_8_0" index="0" speed="6.51" length="9.03" shape="704.00,101.60 701.55,101.25 699.80,100.20 698.75,98.45 698.40,96.00"/>
    </edge>
    <edge id=":5_32_0" function="internal">
        <lane id=":5_32_0_0" index="0" speed="25.00" length="14.40" shape="688.80,204.00 688.80,189.60"/>
        <lane id=":5_32_0_1" index="1" speed="25.00" length="14.40" shape="692.00,204.00 692.00,189.60"/>
        <lane id=":5_32_0_2" index="2" speed="25.00" length="14.40" shape="695.20,204.00 695.20,189.60"/>
        <lane id=":5_32_0_3" index="3" speed="25.00" length="14.40" shape="698.40,204.00 698.40,189.60"/>
    </edge>
    <edge id=":5_32_4" function="internal">
        <lane id=":5_32_4_0" index="0" speed="6.51" length="9.03" shape="698.40,204.00 698.75,201.55 699.80,199.80 701.55,198.75 704.00,198.40"/>
    </edge>
    <edge id=":5_32_5" function="internal">
        <lane id=":5_32_5_0" index="0" speed="6.51" length="9.03" shape="683.20,195.20 685.65,194.85 687.40,193.80 688.45,192.05 688.80,189.60"/>
    </edge>
    <edge id=":5_32_6" function="internal">
        <lane id=":5_32_6_0" index="0" speed="7.33" length="11.73" shape="683.20,195.20 687.05,194.85 689.80,193.80 691.45,192.05 692.00,189.60"/>
    </edge>
    <edge id=":5_32_7" function="internal">
        <lane id=":5_32_7_0" index="0" speed="25.00" length="20.80" shape="683.20,195.20 704.00,195.20"/>
        <lane id=":5_32_7_1" index="1" speed="25.00" length="20.80" shape="683.20,198.40 704.00,198.40"/>
    </edge>
    <edge id=":5_33_0" function="internal">
        <lane id=":5_33_0_0" index="0" speed="6.51" length="9.03" shape="688.80,310.40 688.45,307.95 687.40,306.20 685.65,305.15 683.20,304.80"/>
    </edge>
    <edge id=":5_33_1" function="internal">
        <lane id=":5_33_1_0" index="0" speed="25.00" length="14.40" shape="688.80,310.40 688.80,296.00"/>
        <lane id=":5_33_1_1" index="1" speed="25.00" length="14.40" shape="692.00,310.40 692.00,296.00"/>
        <lane id=":5_33_1_2" index="2" speed="25.00" length="14.40" shape="695.20,310.40 695.20,296.00"/>
        <lane id=":5_33_1_3" index="3" speed="25.00" length="14.40" shape="698.40,310.40 698.40,296.00"/>
    </edge>
    <edge id=":5_33_5" function="internal">
        <lane id=":5_33_5_0" index="0" speed="25.00" length="20.80" shape="704.00,304.80 683.20,304.80"/>
        <lane id=":5_33_5_1" index="1" speed="25.00" length="20.80" shape="704.00,301.60 683.20,301.60"/>
    </edge>
    <edge id=":5_33_7" function="internal">
        <lane id=":5_33_7_0" index="0" speed="7.33" length="11.73" shape="704.00,301.60 700.15,301.25 697.40,300.20 695.75,298.45 695.20,296.00"/>
    </edge>
    <edge id=":5_33_8" function="internal">
        <lane id=":5_33_8_0" index="0" speed="6.51" length="9.03" shape="704.00,301.60 701.55,301.25 699.80,300.20 698.75,298.45 698.40,296.00"/>
    </edge>
    <edge id=":5_34_0" function="internal">
        <lane id=":5_34_0_0" index="0" speed="6.51" length="9.03" shape="688.80,410.40 688.45,407.95 687.40,406.20 685.65,405.15 683.20,404.80"/>
    </edge>
    <edge id=":5_34_1" function="internal">
        <lane id=":5_34_1_0" index="0" speed="25.00" length="20.80" shape="688.80,410.40 688.80,389.60"/>
        <lane id=":5_34_1_1" index="1" speed="25.00" length="20.80" shape="692.00,410.40 692.00,389.60"/>
        <lane id=":5_34_1_2" index="2" speed="25.00" length="20.80" shape="695.20,410.40 695.20,389.60"/>
        <lane id=":5_34_1_3" index="3" speed="25.00" length="20.80" shape="698.40,410.40 698.40,389.60"/>
    </edge>
    <edge id=":5_34_5" function="internal">
        <lane id=":5_34_5_0" index="0" speed="8.10" length="14.57" shape="698.40,410.40 698.75,405.15 699.80,401.40 701.55,399.15 704.00,398.40"/>
    </edge>
    <edge id=":5_34_6" function="internal">
        <lane id=":5_34_6_0" index="0" speed="25.00" length="20.80" shape="704.00,404.80 683.20,404.80"/>
        <lane id=":5_34_6_1" index="1" speed="25.00" length="20.80" shape="704.00,401.60 683.20,401.60"/>
    </edge>
    <edge id=":5_34_8" function="internal">
        <lane id=":5_34_8_0" index="0" speed="8.10" length="3.64" shape="704.00,401.60 701.55,400.85 700.89,400.00"/>
    </edge>
    <edge id=":5_34_9" function="internal">
        <lane id=":5_34_9_0" index="0" speed="3.65" length="2.34" shape="704.00,401.60 702.80,400.80 702.40,400.00"/>
    </edge>
    <edge id=":5_34_14" function="internal">
        <lane id=":5_34_14_0" index="0" speed="8.10" length="10.93" shape="700.89,400.00 699.80,398.60 698.75,394.85 698.40,389.60"/>
    </edge>
    <edge id=":5_34_15" function="internal">
        <lane id=":5_34_15_0" index="0" speed="3.65" length="2.34" shape="702.40,400.00 702.80,399.20 704.00,398.40"/>
    </edge>
    <edge id=":5_34_10" function="internal">
        <lane id=":5_34_10_0" index="0" speed="6.51" length="9.03" shape="683.20,395.20 685.65,394.85 687.40,393.80 688.45,392.05 688.80,389.60"/>
    </edge>
    <edge id=":5_34_11" function="internal">
        <lane id=":5_34_11_0" index="0" speed="25.00" length="20.80" shape="683.20,395.20 704.00,395.20"/>
        <lane id=":5_34_11_1" index="1" speed="25.00" length="20.80" shape="683.20,398.40 704.00,398.40"/>
    </edge>
    <edge id=":5_34_13" function="internal">
        <lane id=":5_34_13_0" index="0" speed="3.65" length="2.34" shape="683.20,398.40 684.40,399.20 684.80,400.00"/>
    </edge>
    <edge id=":5_34_16" function="internal">
        <lane id=":5_34_16_0" index="0" speed="3.65" length="2.34" shape="684.80,400.00 684.40,400.80 683.20,401.60"/>
    </edge>
    <edge id=":5_35_0" function="internal">
        <lane id=":5_35_0_0" index="0" speed="6.51" length="9.03" shape="688.80,510.40 688.45,507.95 687.40,506.20 685.65,505.15 683.20,504.80"/>
    </edge>
    <edge id=":5_35_1" function="internal">
        <lane id=":5_35_1_0" index="0" speed="25.00" length="14.40" shape="688.80,510.40 688.80,496.00"/>
        <lane id=":5_35_1_1" index="1" speed="25.00" length="14.40" shape="692.00,510.40 692.00,496.00"/>
        <lane id=":5_35_1_2" index="2" speed="25.00" length="14.40" shape="695.20,510.40 695.20,496.00"/>
        <lane id=":5_35_1_3" index="3" speed="25.00" length="14.40" shape="698.40,510.40 698.40,496.00"/>
    </edge>
    <edge id=":5_35_5" function="internal">
        <lane id=":5_35_5_0" index="0" speed="25.00" length="20.80" shape="704.00,504.80 683.20,504.80"/>
        <lane id=":5_35_5_1" index="1" speed="25.00" length="20.80" shape="704.00,501.60 683.20,501.60"/>
    </edge>
    <edge id=":5_35_7" function="internal">
        <lane id=":5_35_7_0" index="0" speed="7.33" length="11.73" shape="704.00,501.60 700.15,501.25 697.40,500.20 695.75,498.45 695.20,496.00"/>
    </edge>
    <edge id=":5_35_8" function="internal">
        <lane id=":5_35_8_0" index="0" speed="6.51" length="9.03" shape="704.00,501.60 701.55,501.25 699.80,500.20 698.75,498.45 698.40,496.00"/>
    </edge>
    <edge id=":5_36_0" function="internal">
        <lane id=":5_36_0_0" index="0" speed="25.00" length="14.40" shape="688.80,604.00 688.80,589.60"/>
        <lane id=":5_36_0_1" index="1" speed="25.00" length="14.40" shape="692.00,604.00 692.00,589.60"/>
        <lane id=":5_36_0_2" index="2" speed="25.00" length="14.40" shape="695.20,604.00 695.20,589.60"/>
        <lane id=":5_36_0_3" index="3" speed="25.00" length="14.40" shape="698.40,604.00 698.40,589.60"/>
    </edge>
    <edge id=":5_36_4" function="internal">
        <lane id=":5_36_4_0" index="0" speed="6.51" length="9.03" shape="698.40,604.00 698.75,601.55 699.80,599.80 701.55,598.75 704.00,598.40"/>
    </edge>
    <edge id=":5_36_5" function="internal">
        <lane id=":5_36_5_0" index="0" speed="6.51" length="9.03" shape="683.20,595.20 685.65,594.85 687.40,593.80 688.45,592.05 688.80,589.60"/>
    </edge>
    <edge id=":5_36_6" function="internal">
        <lane id=":5_36_6_0" index="0" speed="7.33" length="11.73" shape="683.20,595.20 687.05,594.85 689.80,593.80 691.45,592.05 692.00,589.60"/>
    </edge>
    <edge id=":5_36_7" function="internal">
        <lane id=":5_36_7_0" index="0" speed="25.00" length="20.80" shape="683.20,595.20 704.00,595.20"/>
        <lane id=":5_36_7_1" index="1" speed="25.00" length="20.80" shape="683.20,598.40 704.00,598.40"/>
    </edge>
    <edge id=":5_37_0" function="internal">
        <lane id=":5_37_0_0" index="0" speed="6.51" length="9.03" shape="688.80,710.40 688.45,707.95 687.40,706.20 685.65,705.15 683.20,704.80"/>
    </edge>
    <edge id=":5_37_1" function="internal">
        <lane id=":5_37_1_0" index="0" speed="25.00" length="14.40" shape="688.80,710.40 688.80,696.00"/>
        <lane id=":5_37_1_1" index="1" speed="25.00" length="14.40" shape="692.00,710.40 692.00,696.00"/>
        <lane id=":5_37_1_2" index="2" speed="25.00" length="14.40" shape="695.20,710.40 695.20,696.00"/>
        <lane id=":5_37_1_3" index="3" speed="25.00" length="14.40" shape="698.40,710.40 698.40,696.00"/>
    </edge>
    <edge id=":5_37_5" function="internal">
        <lane id=":5_37_5_0" index="0" speed="25.00" length="20.80" shape="704.00,704.80 683.20,704.80"/>
        <lane id=":5_37_5_1" index="1" speed="25.00" length="20.80" shape="704.00,701.60 683.20,701.60"/>
    </edge>
    <edge id=":5_37_7" function="internal">
        <lane id=":5_37_7_0" index="0" speed="7.33" length="11.73" shape="704.00,701.60 700.15,701.25 697.40,700.20 695.75,698.45 695.20,696.00"/>
    </edge>
    <edge id=":5_37_8" function="internal">
        <lane id=":5_37_8_0" index="0" speed="6.51" length="9.03" shape="704.00,701.60 701.55,701.25 699.80,700.20 698.75,698.45 698.40,696.00"/>
    </edge>
    <edge id=":5_38_0" function="internal">
        <lane id=":5_38_0_0" index="0" speed="25.00" length="14.40" shape="688.80,804.00 688.80,789.60"/>
        <lane id=":5_38_0_1" index="1" speed="25.00" length="14.40" shape="692.00,804.00 692.00,789.60"/>
        <lane id=":5_38_0_2" index="2" speed="25.00" length="14.40" shape="695.20,804.00 695.20,789.60"/>
        <lane id=":5_38_0_3" index="3" speed="25.00" length="14.40" shape="698.40,804.00 698.40,789.60"/>
    </edge>
    <edge id=":5_38_4" function="internal">
        <lane id=":5_38_4_0" index="0" speed="6.51" length="9.03" shape="698.40,804.00 698.75,801.55 699.80,799.80 701.55,798.75 704.00,798.40"/>
    </edge>
    <edge id=":5_38_5" function="internal">
        <lane id=":5_38_5_0" index="0" speed="6.51" length="9.03" shape="683.20,795.20 685.65,794.85 687.40,793.80 688.45,792.05 688.80,789.60"/>
    </edge>
    <edge id=":5_38_6" function="internal">
        <lane id=":5_38_6_0" index="0" speed="7.33" length="11.73" shape="683.20,795.20 687.05,794.85 689.80,793.80 691.45,792.05 692.00,789.60"/>
    </edge>
    <edge id=":5_38_7" function="internal">
        <lane id=":5_38_7_0" index="0" speed="25.00" length="20.80" shape="683.20,795.20 704.00,795.20"/>
        <lane id=":5_38_7_1" index="1" speed="25.00" length="20.80" shape="683.20,798.40 704.00,798.40"/>
    </edge>
    <edge id=":5_39_0" function="internal">
        <lane id=":5_39_0_0" index="0" speed="6.51" length="9.03" shape="688.80,910.40 688.45,907.95 687.40,906.20 685.65,905.15 683.20,904.80"/>
    </edge>
    <edge id=":5_39_1" function="internal">
        <lane id=":5_39_1_0" index="0" speed="25.00" length="14.40" shape="688.80,910.40 688.80,896.00"/>
        <lane id=":5_39_1_1" index="1" speed="25.00" length="14.40" shape="692.00,910.40 692.00,896.00"/>
        <lane id=":5_39_1_2" index="2" speed="25.00" length="14.40" shape="695.20,910.40 695.20,896.00"/>
        <lane id=":5_39_1_3" index="3" speed="25.00" length="14.40" shape="698.40,910.40 698.40,896.00"/>
    </edge>
    <edge id=":5_39_5" function="internal">
        <lane id=":5_39_5_0" index="0" speed="25.00" length="20.80" shape="704.00,904.80 683.20,904.80"/>
        <lane id=":5_39_5_1" index="1" speed="25.00" length="20.80" shape="704.00,901.60 683.20,901.60"/>
    </edge>
    <edge id=":5_39_7" function="internal">
        <lane id=":5_39_7_0" index="0" speed="7.33" length="11.73" shape="704.00,901.60 700.15,901.25 697.40,900.20 695.75,898.45 695.20,896.00"/>
    </edge>
    <edge id=":5_39_8" function="internal">
        <lane id=":5_39_8_0" index="0" speed="6.51" length="9.03" shape="704.00,901.60 701.55,901.25 699.80,900.20 698.75,898.45 698.40,896.00"/>
    </edge>
    <edge id=":5_40_0" function="internal">
        <lane id=":5_40_0_0" index="0" speed="25.00" length="14.40" shape="688.80,1004.00 688.80,989.60"/>
        <lane id=":5_40_0_1" index="1" speed="25.00" length="14.40" shape="692.00,1004.00 692.00,989.60"/>
        <lane id=":5_40_0_2" index="2" speed="25.00" length="14.40" shape="695.20,1004.00 695.20,989.60"/>
        <lane id=":5_40_0_3" index="3" speed="25.00" length="14.40" shape="698.40,1004.00 698.40,989.60"/>
    </edge>
    <edge id=":5_40_4" function="internal">
        <lane id=":5_40_4_0" index="0" speed="6.51" length="9.03" shape="698.40,1004.00 698.75,1001.55 699.80,999.80 701.55,998.75 704.00,998.40"/>
    </edge>
    <edge id=":5_40_5" function="internal">
        <lane id=":5_40_5_0" index="0" speed="6.51" length="9.03" shape="683.20,995.20 685.65,994.85 687.40,993.80 688.45,992.05 688.80,989.60"/>
    </edge>
    <edge id=":5_40_6" function="internal">
        <lane id=":5_40_6_0" index="0" speed="7.33" length="11.73" shape="683.20,995.20 687.05,994.85 689.80,993.80 691.45,992.05 692.00,989.60"/>
    </edge>
    <edge id=":5_40_7" function="internal">
        <lane id=":5_40_7_0" index="0" speed="25.00" length="20.80" shape="683.20,995.20 704.00,995.20"/>
        <lane id=":5_40_7_1" index="1" speed="25.00" length="20.80" shape="683.20,998.40 704.00,998.40"/>
    </edge>
    <edge id=":5_41_0" function="internal">
        <lane id=":5_41_0_0" index="0" speed="6.51" length="9.03" shape="688.80,1110.40 688.45,1107.95 687.40,1106.20 685.65,1105.15 683.20,1104.80"/>
    </edge>
    <edge id=":5_41_1" function="internal">
        <lane id=":5_41_1_0" index="0" speed="25.00" length="14.40" shape="688.80,1110.40 688.80,1096.00"/>
        <lane id=":5_41_1_1" index="1" speed="25.00" length="14.40" shape="692.00,1110.40 692.00,1096.00"/>
        <lane id=":5_41_1_2" index="2" speed="25.00" length="14.40" shape="695.20,1110.40 695.20,1096.00"/>
        <lane id=":5_41_1_3" index="3" speed="25.00" length="14.40" shape="698.40,1110.40 698.40,1096.00"/>
    </edge>
    <edge id=":5_41_5" function="internal">
        <lane id=":5_41_5_0" index="0" speed="25.00" length="20.80" shape="704.00,1104.80 683.20,1104.80"/>
        <lane id=":5_41_5_1" index="1" speed="25.00" length="20.80" shape="704.00,1101.60 683.20,1101.60"/>
    </edge>
    <edge id=":5_41_7" function="internal">
        <lane id=":5_41_7_0" index="0" speed="7.33" length="11.73" shape="704.00,1101.60 700.15,1101.25 697.40,1100.20 695.75,1098.45 695.20,1096.00"/>
    </edge>
    <edge id=":5_41_8" function="internal">
        <lane id=":5_41_8_0" index="0" speed="6.51" length="9.03" shape="704.00,1101.60 701.55,1101.25 699.80,1100.20 698.75,1098.45 698.40,1096.00"/>
    </edge>
    <edge id=":5_42_0" function="internal">
        <lane id=":5_42_0_0" index="0" speed="6.51" length="9.03" shape="688.80,1210.40 688.45,1207.95 687.40,1206.20 685.65,1205.15 683.20,1204.80"/>
    </edge>
    <edge id=":5_42_1" function="internal">
        <lane id=":5_42_1_0" index="0" speed="25.00" length="20.80" shape="688.80,1210.40 688.80,1189.60"/>
        <lane id=":5_42_1_1" index="1" speed="25.00" length="20.80" shape="692.00,1210.40 692.00,1189.60"/>
        <lane id=":5_42_1_2" index="2" speed="25.00" length="20.80" shape="695.20,1210.40 695.20,1189.60"/>
        <lane id=":5_42_1_3" index="3" speed="25.00" length="20.80" shape="698.40,1210.40 698.40,1189.60"/>
    </edge>
    <edge id=":5_42_5" function="internal">
        <lane id=":5_42_5_0" index="0" speed="8.10" length="14.57" shape="698.40,1210.40 698.75,1205.15 699.80,1201.40 701.55,1199.15 704.00,1198.40"/>
    </edge>
    <edge id=":5_42_6" function="internal">
        <lane id=":5_42_6_0" index="0" speed="25.00" length="20.80" shape="704.00,1204.80 683.20,1204.80"/>
        <lane id=":5_42_6_1" index="1" speed="25.00" length="20.80" shape="704.00,1201.60 683.20,1201.60"/>
    </edge>
    <edge id=":5_42_8" function="internal">
        <lane id=":5_42_8_0" index="0" speed="8.10" length="3.64" shape="704.00,1201.60 701.55,1200.85 700.89,1200.00"/>
    </edge>
    <edge id=":5_42_9" function="internal">
        <lane id=":5_42_9_0" index="0" speed="3.65" length="2.34" shape="704.00,1201.60 702.80,1200.80 702.40,1200.00"/>
    </edge>
    <edge id=":5_42_14" function="internal">
        <lane id=":5_42_14_0" index="0" speed="8.10" length="10.93" shape="700.89,1200.00 699.80,1198.60 698.75,1194.85 698.40,1189.60"/>
    </edge>
    <edge id=":5_42_15" function="internal">
        <lane id=":5_42_15_0" index="0" speed="3.65" length="2.34" shape="702.40,1200.00 702.80,1199.20 704.00,1198.40"/>
    </edge>
    <edge id=":5_42_10" function="internal">
        <lane id=":5_42_10_0" index="0" speed="6.51" length="9.03" shape="683.20,1195.20 685.65,1194.85 687.40,1193.80 688.45,1192.05 688.80,1189.60"/>
    </edge>
    <edge id=":5_42_11" function="internal">
        <lane id=":5_42_11_0" index="0" speed="25.00" length="20.80" shape="683.20,1195.20 704.00,1195.20"/>
        <lane id=":5_42_11_1" index="1" speed="25.00" length="20.80" shape="683.20,1198.40 704.00,1198.40"/>
    </edge>
    <edge id=":5_42_13" function="internal">
        <lane id=":5_42_13_0" index="0" speed="3.65" length="2.34" shape="683.20,1198.40 684.40,1199.20 684.80,1200.00"/>
    </edge>
    <edge id=":5_42_16" function="internal">
        <lane id=":5_42_16_0" index="0" speed="3.65" length="2.34" shape="684.80,1200.00 684.40,1200.80 683.20,1201.60"/>
    </edge>
    <edge id=":5_43_0" function="internal">
        <lane id=":5_43_0_0" index="0" speed="6.51" length="9.03" shape="688.80,1310.40 688.45,1307.95 687.40,1306.20 685.65,1305.15 683.20,1304.80"/>
    </edge>
    <edge id=":5_43_1" function="internal">
        <lane id=":5_43_1_0" index="0" speed="25.00" length="14.40" shape="688.80,1310.40 688.80,1296.00"/>
        <lane id=":5_43_1_1" index="1" speed="25.00" length="14.40" shape="692.00,1310.40 692.00,1296.00"/>
        <lane id=":5_43_1_2" index="2" speed="25.00" length="14.40" shape="695.20,1310.40 695.20,1296.00"/>
        <lane id=":5_43_1_3" index="3" speed="25.00" length="14.40" shape="698.40,1310.40 698.40,1296.00"/>
    </edge>
    <edge id=":5_43_5" function="internal">
        <lane id=":5_43_5_0" index="0" speed="25.00" length="20.80" shape="704.00,1304.80 683.20,1304.80"/>
        <lane id=":5_43_5_1" index="1" speed="25.00" length="20.80" shape="704.00,1301.60 683.20,1301.60"/>
    </edge>
    <edge id=":5_43_7" function="internal">
        <lane id=":5_43_7_0" index="0" speed="7.33" length="11.73" shape="704.00,1301.60 700.15,1301.25 697.40,1300.20 695.75,1298.45 695.20,1296.00"/>
    </edge>
    <edge id=":5_43_8" function="internal">
        <lane id=":5_43_8_0" index="0" speed="6.51" length="9.03" shape="704.00,1301.60 701.55,1301.25 699.80,1300.20 698.75,1298.45 698.40,1296.00"/>
    </edge>
    <edge id=":5_44_0" function="internal">
        <lane id=":5_44_0_0" index="0" speed="25.00" length="14.40" shape="688.80,1404.00 688.80,1389.60"/>
        <lane id=":5_44_0_1" index="1" speed="25.00" length="14.40" shape="692.00,1404.00 692.00,1389.60"/>
        <lane id=":5_44_0_2" index="2" speed="25.00" length="14.40" shape="695.20,1404.00 695.20,1389.60"/>
        <lane id=":5_44_0_3" index="3" speed="25.00" length="14.40" shape="698.40,1404.00 698.40,1389.60"/>
    </edge>
    <edge id=":5_44_4" function="internal">
        <lane id=":5_44_4_0" index="0" speed="6.51" length="9.03" shape="698.40,1404.00 698.75,1401.55 699.80,1399.80 701.55,1398.75 704.00,1398.40"/>
    </edge>
    <edge id=":5_44_5" function="internal">
        <lane id=":5_44_5_0" index="0" speed="6.51" length="9.03" shape="683.20,1395.20 685.65,1394.85 687.40,1393.80 688.45,1392.05 688.80,1389.60"/>
    </edge>
    <edge id=":5_44_6" function="internal">
        <lane id=":5_44_6_0" index="0" speed="7.33" length="11.73" shape="683.20,1395.20 687.05,1394.85 689.80,1393.80 691.45,1392.05 692.00,1389.60"/>
    </edge>
    <edge id=":5_44_7" function="internal">
        <lane id=":5_44_7_0" index="0" speed="25.00" length="20.80" shape="683.20,1395.20 704.00,1395.20"/>
        <lane id=":5_44_7_1" index="1" speed="25.00" length="20.80" shape="683.20,1398.40 704.00,1398.40"/>
    </edge>
    <edge id=":5_45_0" function="internal">
        <lane id=":5_45_0_0" index="0" speed="6.51" length="9.03" shape="688.80,1510.40 688.45,1507.95 687.40,1506.20 685.65,1505.15 683.20,1504.80"/>
    </edge>
    <edge id=":5_45_1" function="internal">
        <lane id=":5_45_1_0" index="0" speed="25.00" length="14.40" shape="688.80,1510.40 688.80,1496.00"/>
        <lane id=":5_45_1_1" index="1" speed="25.00" length="14.40" shape="692.00,1510.40 692.00,1496.00"/>
        <lane id=":5_45_1_2" index="2" speed="25.00" length="14.40" shape="695.20,1510.40 695.20,1496.00"/>
        <lane id=":5_45_1_3" index="3" speed="25.00" length="14.40" shape="698.40,1510.40 698.40,1496.00"/>
    </edge>
    <edge id=":5_45_5" function="internal">
        <lane id=":5_45_5_0" index="0" speed="25.00" length="20.80" shape="704.00,1504.80 683.20,1504.80"/>
        <lane id=":5_45_5_1" index="1" speed="25.00" length="20.80" shape="704.00,1501.60 683.20,1501.60"/>
    </edge>
    <edge id=":5_45_7" function="internal">
        <lane id=":5_45_7_0" index="0" speed="7.33" length="11.73" shape="704.00,1501.60 700.15,1501.25 697.40,1500.20 695.75,1498.45 695.20,1496.00"/>
    </edge>
    <edge id=":5_45_8" function="internal">
        <lane id=":5_45_8_0" index="0" speed="6.51" length="9.03" shape="704.00,1501.60 701.55,1501.25 699.80,1500.20 698.75,1498.45 698.40,1496.00"/>
    </edge>
    <edge id=":5_46_0" function="internal">
        <lane id=":5_46_0_0" index="0" speed="25.00" length="14.40" shape="688.80,1604.00 688.80,1589.60"/>
        <lane id=":5_46_0_1" index="1" speed="25.00" length="14.40" shape="692.00,1604.00 692.00,1589.60"/>
        <lane id=":5_46_0_2" index="2" speed="25.00" length="14.40" shape="695.20,1604.00 695.20,1589.60"/>
        <lane id=":5_46_0_3" index="3" speed="25.00" length="14.40" shape="698.40,1604.00 698.40,1589.60"/>
    </edge>
    <edge id=":5_46_4" function="internal">
        <lane id=":5_46_4_0" index="0" speed="6.51" length="9.03" shape="698.40,1604.00 698.75,1601.55 699.80,1599.80 701.55,1598.75 704.00,1598.40"/>
    </edge>
    <edge id=":5_46_5" function="internal">
        <lane id=":5_46_5_0" index="0" speed="6.51" length="9.03" shape="683.20,1595.20 685.65,1594.85 687.40,1593.80 688.45,1592.05 688.80,1589.60"/>
    </edge>
    <edge id=":5_46_6" function="internal">
        <lane id=":5_46_6_0" index="0" speed="7.33" length="11.73" shape="683.20,1595.20 687.05,1594.85 689.80,1593.80 691.45,1592.05 692.00,1589.60"/>
    </edge>
    <edge id=":5_46_7" function="internal">
        <lane id=":5_46_7_0" index="0" speed="25.00" length="20.80" shape="683.20,1595.20 704.00,1595.20"/>
        <lane id=":5_46_7_1" index="1" speed="25.00" length="20.80" shape="683.20,1598.40 704.00,1598.40"/>
    </edge>
    <edge id=":5_47_0" function="internal">
        <lane id=":5_47_0_0" index="0" speed="6.51" length="9.03" shape="688.80,1710.40 688.45,1707.95 687.40,1706.20 685.65,1705.15 683.20,1704.80"/>
    </edge>
    <edge id=":5_47_1" function="internal">
        <lane id=":5_47_1_0" index="0" speed="25.00" length="14.40" shape="688.80,1710.40 688.80,1696.00"/>
        <lane id=":5_47_1_1" index="1" speed="25.00" length="14.40" shape="692.00,1710.40 692.00,1696.00"/>
        <lane id=":5_47_1_2" index="2" speed="25.00" length="14.40" shape="695.20,1710.40 695.20,1696.00"/>
        <lane id=":5_47_1_3" index="3" speed="25.00" length="14.40" shape="698.40,1710.40 698.40,1696.00"/>
    </edge>
    <edge id=":5_47_5" function="internal">
        <lane id=":5_47_5_0" index="0" speed="25.00" length="20.80" shape="704.00,1704.80 683.20,1704.80"/>
        <lane id=":5_47_5_1" index="1" speed="25.00" length="20.80" shape="704.00,1701.60 683.20,1701.60"/>
    </edge>
    <edge id=":5_47_7" function="internal">
        <lane id=":5_47_7_0" index="0" speed="7.33" length="11.73" shape="704.00,1701.60 700.15,1701.25 697.40,1700.20 695.75,1698.45 695.20,1696.00"/>
    </edge>
    <edge id=":5_47_8" function="internal">
        <lane id=":5_47_8_0" index="0" speed="6.51" length="9.03" shape="704.00,1701.60 701.55,1701.25 699.80,1700.20 698.75,1698.45 698.40,1696.00"/>
    </edge>
    <edge id=":5_48_0" function="internal">
        <lane id=":5_48_0_0" index="0" speed="25.00" length="14.40" shape="688.80,1804.00 688.80,1789.60"/>
        <lane id=":5_48_0_1" index="1" speed="25.00" length="14.40" shape="692.00,1804.00 692.00,1789.60"/>
        <lane id=":5_48_0_2" index="2" speed="25.00" length="14.40" shape="695.20,1804.00 695.20,1789.60"/>
        <lane id=":5_48_0_3" index="3" speed="25.00" length="14.40" shape="698.40,1804.00 698.40,1789.60"/>
    </edge>
    <edge id=":5_48_4" function="internal">
        <lane id=":5_48_4_0" index="0" speed="6.51" length="9.03" shape="698.40,1804.00 698.75,1801.55 699.80,1799.80 701.55,1798.75 704.00,1798.40"/>
    </edge>
    <edge id=":5_48_5" function="internal">
        <lane id=":5_48_5_0" index="0" speed="6.51" length="9.03" shape="683.20,1795.20 685.65,1794.85 687.40,1793.80 688.45,1792.05 688.80,1789.60"/>
    </edge>
    <edge id=":5_48_6" function="internal">
        <lane id=":5_48_6_0" index="0" speed="7.33" length="11.73" shape="683.20,1795.20 687.05,1794.85 689.80,1793.80 691.45,1792.05 692.00,1789.60"/>
    </edge>
    <edge id=":5_48_7" function="internal">
        <lane id=":5_48_7_0" index="0" speed="25.00" length="20.80" shape="683.20,1795.20 704.00,1795.20"/>
        <lane id=":5_48_7_1" index="1" speed="25.00" length="20.80" shape="683.20,1798.40 704.00,1798.40"/>
    </edge>
    <edge id=":5_49_0" function="internal">
        <lane id=":5_49_0_0" index="0" speed="6.51" length="9.03" shape="688.80,1910.40 688.45,1907.95 687.40,1906.20 685.65,1905.15 683.20,1904.80"/>
    </edge>
    <edge id=":5_49_1" function="internal">
        <lane id=":5_49_1_0" index="0" speed="25.00" length="14.40" shape="688.80,1910.40 688.80,1896.00"/>
        <lane id=":5_49_1_1" index="1" speed="25.00" length="14.40" shape="692.00,1910.40 692.00,1896.00"/>
        <lane id=":5_49_1_2" index="2" speed="25.00" length="14.40" shape="695.20,1910.40 695.20,1896.00"/>
        <lane id=":5_49_1_3" index="3" speed="25.00" length="14.40" shape="698.40,1910.40 698.40,1896.00"/>
    </edge>
    <edge id=":5_49_5" function="internal">
        <lane id=":5_49_5_0" index="0" speed="25.00" length="20.80" shape="704.00,1904.80 683.20,1904.80"/>