<?xml version="1.0" encoding="UTF-8"?>

<!-- generated on 03/30/21 18:43:19 by Eclipse SUMO netconvert Version 1.8.0
<configuration xmlns:xsi="http://www.w3.org/2001/XMLSchema-instance" xsi:noNamespaceSchemaLocation="http://sumo.dlr.de/xsd/netconvertConfiguration.xsd">

    <input>
        <osm-files value="manhattan.osm"/>
    </input>

    <output>
        <output-file value="manhattan.net.xml"/>
    </output>

    <projection>
        <proj.utm value="true"/>
    </projection>

    <report>
        <aggregate-warnings value="5"/>
    </report>

</configuration>
-->

<net version="1.6" junctionCornerDetail="5" limitTurnSpeed="5.50" xmlns:xsi="http://www.w3.org/2001/XMLSchema-instance" xsi:noNamespaceSchemaLocation="http://sumo.dlr.de/xsd/net_file.xsd">

    <location netOffset="-584573.43,-4510300.18" convBoundary="0.00,0.00,3812.50,1595.54" origBoundary="-73.998315,40.739276,-73.953153,40.761142" projParameter="+proj=utm +zone=18 +ellps=WGS84 +datum=WGS84 +units=m +no_defs"/>

    <type id="highway.bridleway" priority="1" numLanes="1" speed="2.78" allow="pedestrian" oneway="1" width="2.00"/>
    <type id="highway.bus_guideway" priority="1" numLanes="1" speed="27.78" allow="bus" oneway="1"/>
    <type id="highway.cycleway" priority="1" numLanes="1" speed="8.33" allow="bicycle" oneway="0" width="1.00"/>
    <type id="highway.footway" priority="1" numLanes="1" speed="2.78" allow="pedestrian" oneway="1" width="2.00"/>
    <type id="highway.ford" priority="1" numLanes="1" speed="2.78" allow="army" oneway="0"/>
    <type id="highway.living_street" priority="2" numLanes="1" speed="2.78" disallow="tram rail_urban rail rail_electric rail_fast ship" oneway="0"/>
    <type id="highway.motorway" priority="14" numLanes="2" speed="39.44" allow="private emergency authority army vip passenger hov taxi bus coach delivery truck trailer motorcycle evehicle custom1 custom2" oneway="1"/>
    <type id="highway.motorway_link" priority="9" numLanes="1" speed="22.22" allow="private emergency authority army vip passenger hov taxi bus coach delivery truck trailer motorcycle evehicle custom1 custom2" oneway="1"/>
    <type id="highway.path" priority="1" numLanes="1" speed="2.78" allow="pedestrian bicycle" oneway="0" width="2.00"/>
    <type id="highway.pedestrian" priority="1" numLanes="1" speed="2.78" allow="pedestrian" oneway="1" width="2.00"/>
    <type id="highway.primary" priority="12" numLanes="2" speed="27.78" disallow="tram rail_urban rail rail_electric rail_fast ship" oneway="0"/>
    <type id="highway.primary_link" priority="7" numLanes="1" speed="22.22" disallow="tram rail_urban rail rail_electric rail_fast ship" oneway="0"/>
    <type id="highway.raceway" priority="15" numLanes="2" speed="83.33" allow="vip" oneway="0"/>
    <type id="highway.residential" priority="3" numLanes="1" speed="13.89" disallow="tram rail_urban rail rail_electric rail_fast ship" oneway="0"/>
    <type id="highway.secondary" priority="11" numLanes="1" speed="27.78" disallow="tram rail_urban rail rail_electric rail_fast ship" oneway="0"/>
    <type id="highway.secondary_link" priority="6" numLanes="1" speed="22.22" disallow="tram rail_urban rail rail_electric rail_fast ship" oneway="0"/>
    <type id="highway.service" priority="1" numLanes="1" speed="5.56" allow="pedestrian delivery bicycle" oneway="0"/>
    <type id="highway.stairs" priority="1" numLanes="1" speed="1.39" allow="pedestrian" oneway="1" width="2.00"/>
    <type id="highway.step" priority="1" numLanes="1" speed="1.39" allow="pedestrian" oneway="1" width="2.00"/>
    <type id="highway.steps" priority="1" numLanes="1" speed="1.39" allow="pedestrian" oneway="1" width="2.00"/>
    <type id="highway.tertiary" priority="10" numLanes="1" speed="22.22" disallow="tram rail_urban rail rail_electric rail_fast ship" oneway="0"/>
    <type id="highway.tertiary_link" priority="5" numLanes="1" speed="22.22" disallow="tram rail_urban rail rail_electric rail_fast ship" oneway="0"/>
    <type id="highway.track" priority="1" numLanes="1" speed="5.56" allow="pedestrian motorcycle moped bicycle" oneway="0"/>
    <type id="highway.trunk" priority="13" numLanes="2" speed="27.78" disallow="pedestrian bicycle tram rail_urban rail rail_electric rail_fast ship" oneway="0"/>
    <type id="highway.trunk_link" priority="8" numLanes="1" speed="22.22" disallow="pedestrian bicycle tram rail_urban rail rail_electric rail_fast ship" oneway="0"/>
    <type id="highway.unclassified" priority="4" numLanes="1" speed="13.89" disallow="tram rail_urban rail rail_electric rail_fast ship" oneway="0"/>
    <type id="highway.unsurfaced" priority="1" numLanes="1" speed="8.33" disallow="tram rail_urban rail rail_electric rail_fast ship" oneway="0"/>
    <type id="railway.highspeed" priority="21" numLanes="1" speed="69.44" allow="rail_fast" oneway="1"/>
    <type id="railway.light_rail" priority="19" numLanes="1" speed="27.78" allow="rail_urban" oneway="1"/>
    <type id="railway.preserved" priority="16" numLanes="1" speed="27.78" allow="rail" oneway="1"/>
    <type id="railway.rail" priority="20" numLanes="1" speed="44.44" allow="rail" oneway="1"/>
    <type id="railway.subway" priority="18" numLanes="1" speed="27.78" allow="rail_urban" oneway="1"/>
    <type id="railway.tram" priority="17" numLanes="1" speed="13.89" allow="tram" oneway="1"/>

    <edge id=":2709702236_0" function="internal">
        <lane id=":2709702236_0_0" index="0" allow="pedestrian delivery bicycle" speed="3.65" length="4.67" shape="1151.10,1201.88 1151.33,1200.46 1151.90,1199.76 1152.79,1199.79 1154.02,1200.55"/>
    </edge>
    <edge id=":2709702549_0" function="internal">
        <lane id=":2709702549_0_0" index="0" allow="pedestrian delivery bicycle" speed="3.65" length="4.67" shape="1125.94,1148.12 1125.73,1149.55 1125.17,1150.25 1124.28,1150.23 1123.04,1149.48"/>
    </edge>
    <edge id=":3212786155_0" function="internal">
        <lane id=":3212786155_0_0" index="0" allow="rail rail_electric rail_fast" speed="6.71" length="3.06" shape="574.99,1142.02 574.14,1142.33 573.55,1142.52 572.95,1142.68 572.07,1142.90"/>
    </edge>
    <edge id=":3212786155_1" function="internal">
        <lane id=":3212786155_1_0" index="0" allow="rail rail_electric rail_fast" speed="2.89" length="1.73" shape="572.15,1143.11 572.74,1142.86 572.92,1142.74 572.70,1142.75 572.07,1142.90"/>
    </edge>
    <edge id=":3564808501_0" function="internal">
        <lane id=":3564808501_0_0" index="0" allow="rail rail_electric rail_fast" speed="16.76" length="2.92" shape="710.06,1086.07 707.51,1087.48"/>
    </edge>
    <edge id=":3833309813_0" function="internal">
        <lane id=":3833309813_0_0" index="0" disallow="tram rail_urban rail rail_electric rail_fast ship" speed="11.18" length="4.71" shape="804.26,1036.96 806.54,1041.08"/>
    </edge>
    <edge id=":3833309820_0" function="internal">
        <lane id=":3833309820_0_0" index="0" disallow="tram rail_urban rail rail_electric rail_fast ship" speed="11.18" length="5.03" shape="809.47,1027.83 813.88,1025.41"/>
    </edge>
    <edge id=":3857334397_0" function="internal">
        <lane id=":3857334397_0_0" index="0" disallow="tram rail_urban rail rail_electric rail_fast ship" speed="11.18" length="5.21" shape="894.53,1175.39 889.97,1177.88"/>
        <lane id=":3857334397_0_1" index="1" disallow="tram rail_urban rail rail_electric rail_fast ship" speed="11.18" length="5.21" shape="893.00,1172.58 888.43,1175.07"/>
        <lane id=":3857334397_0_2" index="2" disallow="tram rail_urban rail rail_electric rail_fast ship" speed="11.18" length="5.21" shape="891.47,1169.77 886.90,1172.27"/>
    </edge>
    <edge id=":3857334397_3" function="internal">
        <lane id=":3857334397_3_0" index="0" disallow="tram rail_urban rail rail_electric rail_fast ship" speed="3.65" length="2.34" shape="891.47,1169.77 890.03,1169.64 889.29,1169.13"/>
    </edge>
    <edge id=":3857334397_8" function="internal">
        <lane id=":3857334397_8_0" index="0" disallow="tram rail_urban rail rail_electric rail_fast ship" speed="3.65" length="2.34" shape="889.29,1169.13 889.26,1168.24 889.93,1166.96"/>
    </edge>
    <edge id=":3857334397_4" function="internal">
        <lane id=":3857334397_4_0" index="0" disallow="tram rail_urban rail rail_electric rail_fast ship" speed="11.18" length="5.21" shape="882.29,1163.84 886.86,1161.34"/>
        <lane id=":3857334397_4_1" index="1" disallow="tram rail_urban rail rail_electric rail_fast ship" speed="11.18" length="5.21" shape="883.82,1166.65 888.40,1164.15"/>
        <lane id=":3857334397_4_2" index="2" disallow="tram rail_urban rail rail_electric rail_fast ship" speed="11.18" length="5.21" shape="885.36,1169.46 889.93,1166.96"/>
    </edge>
    <edge id=":3857334397_7" function="internal">
        <lane id=":3857334397_7_0" index="0" disallow="tram rail_urban rail rail_electric rail_fast ship" speed="3.65" length="2.34" shape="885.36,1169.46 886.80,1169.58 887.53,1170.09"/>
    </edge>
    <edge id=":3857334397_9" function="internal">
        <lane id=":3857334397_9_0" index="0" disallow="tram rail_urban rail rail_electric rail_fast ship" speed="3.65" length="2.34" shape="887.53,1170.09 887.56,1170.99 886.90,1172.27"/>
    </edge>
    <edge id=":3857334400_0" function="internal">
        <lane id=":3857334400_0_0" index="0" disallow="tram rail_urban rail rail_electric rail_fast ship" speed="13.89" length="5.02" shape="931.08,1242.22 926.66,1244.60"/>
    </edge>
    <edge id=":3857343072_0" function="internal">
        <lane id=":3857343072_0_0" index="0" disallow="tram rail_urban rail rail_electric rail_fast ship" speed="11.18" length="1.78" shape="873.29,1164.32 874.11,1165.89"/>
    </edge>
    <edge id=":3857343079_0" function="internal">
        <lane id=":3857343079_0_0" index="0" disallow="tram rail_urban rail rail_electric rail_fast ship" speed="11.18" length="3.97" shape="914.16,1241.49 916.04,1244.99"/>
    </edge>
    <edge id=":3857343080_0" function="internal">
        <lane id=":3857343080_0_0" index="0" disallow="tram rail_urban rail rail_electric rail_fast ship" speed="11.18" length="2.97" shape="887.17,1183.70 888.57,1186.35"/>
        <lane id=":3857343080_0_1" index="1" disallow="tram rail_urban rail rail_electric rail_fast ship" speed="11.18" length="2.97" shape="884.35,1185.22 885.75,1187.84"/>
        <lane id=":3857343080_0_2" index="2" disallow="tram rail_urban rail rail_electric rail_fast ship" speed="11.18" length="2.97" shape="881.54,1186.74 882.92,1189.34"/>
    </edge>
    <edge id=":3857366815_0" function="internal">
        <lane id=":3857366815_0_0" index="0" disallow="tram rail_urban rail rail_electric rail_fast ship" speed="11.18" length="5.17" shape="923.88,1252.79 926.30,1257.30"/>
        <lane id=":3857366815_0_1" index="1" disallow="tram rail_urban rail rail_electric rail_fast ship" speed="11.18" length="5.17" shape="921.05,1254.27 923.49,1258.84"/>
        <lane id=":3857366815_0_2" index="2" disallow="tram rail_urban rail rail_electric rail_fast ship" speed="11.18" length="5.17" shape="918.22,1255.76 920.69,1260.37"/>
    </edge>
    <edge id=":3857366817_0" function="internal">
        <lane id=":3857366817_0_0" index="0" disallow="tram rail_urban rail rail_electric rail_fast ship" speed="11.18" length="5.80" shape="874.83,1286.72 874.11,1280.97"/>
    </edge>
    <edge id=":3927137574_0" function="internal">
        <lane id=":3927137574_0_0" index="0" allow="bicycle" speed="8.33" length="0.45" width="1.00" shape="865.41,1174.62 865.49,1174.18"/>
    </edge>
    <edge id=":4207937589_0" function="internal">
        <lane id=":4207937589_0_0" index="0" disallow="tram rail_urban rail rail_electric rail_fast ship" speed="3.65" length="4.67" shape="1240.60,977.79 1242.04,977.90 1242.78,978.41 1242.82,979.30 1242.17,980.58"/>
    </edge>
    <edge id=":42427797_0" function="internal">
        <lane id=":42427797_0_0" index="0" disallow="tram rail_urban rail rail_electric rail_fast ship" speed="11.18" length="0.30" shape="688.46,824.62 688.60,824.88"/>
    </edge>
    <edge id=":42428232_0" function="internal">
        <lane id=":42428232_0_0" index="0" disallow="tram rail_urban rail rail_electric rail_fast ship" speed="5.87" length="9.11" shape="834.69,931.72 833.98,929.18 832.68,927.78 830.78,927.54 828.30,928.44"/>
    </edge>
    <edge id=":42428232_1" function="internal">
        <lane id=":42428232_1_0" index="0" disallow="tram rail_urban rail rail_electric rail_fast ship" speed="11.18" length="10.93" shape="837.91,923.24 828.30,928.44"/>
    </edge>
    <edge id=":42428244_0" function="internal">
        <lane id=":42428244_0_0" index="0" disallow="tram rail_urban rail rail_electric rail_fast ship" speed="11.18" length="5.07" shape="841.45,1106.28 843.92,1110.71"/>
    </edge>
    <edge id=":42428253_0" function="internal">
        <lane id=":42428253_0_0" index="0" disallow="tram rail_urban rail rail_electric rail_fast ship" speed="5.86" length="9.12" shape="873.94,1279.82 873.20,1277.27 871.88,1275.89 869.99,1275.68 867.51,1276.63"/>
    </edge>
    <edge id=":42428253_1" function="internal">
        <lane id=":42428253_1_0" index="0" allow="bicycle" speed="9.75" length="10.71" width="1.00" shape="875.03,1279.66 874.73,1276.29 874.87,1273.44 875.46,1271.12 876.49,1269.32"/>
    </edge>
    <edge id=":42428253_2" function="internal">
        <lane id=":42428253_2_0" index="0" disallow="tram rail_urban rail rail_electric rail_fast ship" speed="13.89" length="13.03" shape="878.93,1270.35 867.51,1276.63"/>
    </edge>
    <edge id=":42428253_3" function="internal">
        <lane id=":42428253_3_0" index="0" allow="bicycle" speed="3.53" length="3.65" width="1.00" shape="878.41,1269.39 876.96,1270.11 876.16,1270.33 876.00,1270.07 876.49,1269.32"/>
    </edge>
    <edge id=":42430279_0" function="internal">
        <lane id=":42430279_0_0" index="0" disallow="tram rail_urban rail rail_electric rail_fast ship" speed="11.18" length="0.30" shape="613.97,686.31 614.12,686.58"/>
    </edge>
    <edge id=":42430282_0" function="internal">
        <lane id=":42430282_0_0" index="0" disallow="tram rail_urban rail rail_electric rail_fast ship" speed="11.18" length="0.30" shape="651.18,755.24 651.32,755.51"/>
    </edge>
    <edge id=":42430288_0" function="internal">
        <lane id=":42430288_0_0" index="0" disallow="tram rail_urban rail rail_electric rail_fast ship" speed="11.18" length="0.30" shape="725.66,893.66 725.81,893.92"/>
    </edge>
    <edge id=":42430292_0" function="internal">
        <lane id=":42430292_0_0" index="0" disallow="tram rail_urban rail rail_electric rail_fast ship" speed="6.49" length="9.03" shape="768.74,960.28 766.75,961.75 765.70,963.50 765.61,965.53 766.48,967.86"/>
    </edge>
    <edge id=":42430292_1" function="internal">
        <lane id=":42430292_1_0" index="0" disallow="tram rail_urban rail rail_electric rail_fast ship" speed="11.18" length="11.22" shape="768.74,960.28 758.86,965.60"/>
    </edge>
    <edge id=":42430292_2" function="internal">
        <lane id=":42430292_2_0" index="0" disallow="tram rail_urban rail rail_electric rail_fast ship" speed="11.18" length="11.22" shape="761.09,958.01 766.48,967.86"/>
    </edge>
    <edge id=":42430292_3" function="internal">
        <lane id=":42430292_3_0" index="0" disallow="tram rail_urban rail rail_electric rail_fast ship" speed="6.49" length="9.03" shape="761.09,958.01 761.96,960.33 761.88,962.37 760.85,964.12 758.86,965.60"/>
    </edge>
    <edge id=":42430295_0" function="internal">
        <lane id=":42430295_0_0" index="0" disallow="tram rail_urban rail rail_electric rail_fast ship" speed="6.30" length="8.47" shape="799.21,1027.94 800.55,1029.65 802.20,1030.49 804.18,1030.44 806.47,1029.51"/>
    </edge>
    <edge id=":42430295_1" function="internal">
        <lane id=":42430295_1_0" index="0" disallow="tram rail_urban rail rail_electric rail_fast ship" speed="11.18" length="10.14" shape="799.21,1027.94 804.16,1036.78"/>
    </edge>
    <edge id=":42430295_2" function="internal">
        <lane id=":42430295_2_0" index="0" disallow="tram rail_urban rail rail_electric rail_fast ship" speed="11.18" length="11.24" shape="796.60,1034.88 806.47,1029.51"/>
    </edge>
    <edge id=":42430295_3" function="internal">
        <lane id=":42430295_3_0" index="0" disallow="tram rail_urban rail rail_electric rail_fast ship" speed="6.51" length="8.82" shape="796.60,1034.88 798.93,1034.01 800.97,1034.04 802.71,1034.97 804.16,1036.78"/>
    </edge>
    <edge id=":42430298_0" function="internal">
        <lane id=":42430298_0_0" index="0" disallow="tram rail_urban rail rail_electric rail_fast ship" speed="6.49" length="9.06" shape="843.37,1098.14 841.37,1099.63 840.33,1101.39 840.26,1103.43 841.15,1105.75"/>
    </edge>
    <edge id=":42430298_1" function="internal">
        <lane id=":42430298_1_0" index="0" disallow="tram rail_urban rail rail_electric rail_fast ship" speed="11.18" length="11.22" shape="843.37,1098.14 833.48,1103.44"/>
    </edge>
    <edge id=":42430298_2" function="internal">
        <lane id=":42430298_2_0" index="0" disallow="tram rail_urban rail rail_electric rail_fast ship" speed="11.18" length="11.12" shape="835.93,1095.92 841.15,1105.75"/>
    </edge>
    <edge id=":42430304_0" function="internal">
        <lane id=":42430304_0_0" index="0" disallow="tram rail_urban rail rail_electric rail_fast ship" speed="11.18" length="15.20" shape="889.79,1177.98 876.46,1185.27"/>
        <lane id=":42430304_0_1" index="1" disallow="tram rail_urban rail rail_electric rail_fast ship" speed="11.18" length="15.20" shape="888.26,1175.17 874.92,1182.46"/>
        <lane id=":42430304_0_2" index="2" disallow="tram rail_urban rail rail_electric rail_fast ship" speed="11.18" length="15.20" shape="886.72,1172.36 873.39,1179.66"/>
    </edge>
    <edge id=":42430304_3" function="internal">
        <lane id=":42430304_3_0" index="0" disallow="tram rail_urban rail rail_electric rail_fast ship" speed="6.31" length="8.59" shape="874.21,1166.07 875.03,1166.58 876.62,1166.39 878.98,1165.51 882.11,1163.94"/>
    </edge>
    <edge id=":42430304_4" function="internal">
        <lane id=":42430304_4_0" index="0" disallow="tram rail_urban rail rail_electric rail_fast ship" speed="11.18" length="21.66" shape="874.21,1166.07 876.46,1169.33 879.56,1172.89 883.20,1177.40 887.07,1183.52"/>
        <lane id=":42430304_4_1" index="1" disallow="tram rail_urban rail rail_electric rail_fast ship" speed="11.18" length="21.66" shape="874.21,1166.07 884.26,1185.04"/>
        <lane id=":42430304_4_2" index="2" disallow="tram rail_urban rail rail_electric rail_fast ship" speed="11.18" length="21.66" shape="874.21,1166.07 875.58,1169.80 876.74,1174.40 878.45,1179.96 881.44,1186.57"/>
    </edge>
    <edge id=":42430304_7" function="internal">
        <lane id=":42430304_7_0" index="0" disallow="tram rail_urban rail rail_electric rail_fast ship" speed="11.18" length="15.20" shape="868.78,1171.24 882.11,1163.94"/>
        <lane id=":42430304_7_1" index="1" disallow="tram rail_urban rail rail_electric rail_fast ship" speed="11.18" length="15.20" shape="870.31,1174.04 883.65,1166.75"/>
        <lane id=":42430304_7_2" index="2" disallow="tram rail_urban rail rail_electric rail_fast ship" speed="11.18" length="15.20" shape="871.85,1176.85 885.18,1169.55"/>
    </edge>
    <edge id=":42430308_0" function="internal">
        <lane id=":42430308_0_0" index="0" disallow="tram rail_urban rail rail_electric rail_fast ship" speed="6.54" length="9.05" shape="926.02,1244.95 924.05,1246.41 923.02,1248.17 922.93,1250.23 923.78,1252.58"/>
    </edge>
    <edge id=":42430308_1" function="internal">
        <lane id=":42430308_1_0" index="0" disallow="tram rail_urban rail rail_electric rail_fast ship" speed="13.89" length="17.51" shape="926.02,1244.95 910.62,1253.28"/>
    </edge>
    <edge id=":42430308_2" function="internal">
        <lane id=":42430308_2_0" index="0" disallow="tram rail_urban rail rail_electric rail_fast ship" speed="11.18" length="10.42" shape="916.14,1245.16 920.94,1254.07"/>
        <lane id=":42430308_2_1" index="1" disallow="tram rail_urban rail rail_electric rail_fast ship" speed="11.18" length="10.42" shape="916.14,1245.16 917.13,1247.97 917.12,1250.24 917.11,1252.57 918.11,1255.56"/>
    </edge>
    <edge id=":42430308_4" function="internal">
        <lane id=":42430308_4_0" index="0" disallow="tram rail_urban rail rail_electric rail_fast ship" speed="7.05" length="10.90" shape="916.14,1245.16 916.62,1247.15 915.86,1249.16 913.86,1251.20 910.62,1253.28"/>
    </edge>
    <edge id=":42430311_0" function="internal">
        <lane id=":42430311_0_0" index="0" disallow="tram rail_urban rail rail_electric rail_fast ship" speed="6.51" length="9.02" shape="956.79,1313.11 958.27,1315.10 960.03,1316.13 962.07,1316.21 964.38,1315.35"/>
    </edge>
    <edge id=":42430311_1" function="internal">
        <lane id=":42430311_1_0" index="0" disallow="tram rail_urban rail rail_electric rail_fast ship" speed="11.18" length="11.07" shape="956.79,1313.11 962.01,1322.97"/>
        <lane id=":42430311_1_1" index="1" disallow="tram rail_urban rail rail_electric rail_fast ship" speed="11.18" length="11.07" shape="953.98,1314.65 959.16,1324.43"/>
        <lane id=":42430311_1_2" index="2" disallow="tram rail_urban rail rail_electric rail_fast ship" speed="11.18" length="11.07" shape="951.17,1316.18 956.32,1325.89"/>
    </edge>
    <edge id=":42430314_0" function="internal">
        <lane id=":42430314_0_0" index="0" disallow="tram rail_urban rail rail_electric rail_fast ship" speed="11.18" length="0.27" shape="994.52,1386.32 994.62,1386.50"/>
        <lane id=":42430314_0_1" index="1" disallow="tram rail_urban rail rail_electric rail_fast ship" speed="11.18" length="0.27" shape="991.68,1387.78 991.81,1388.03"/>
        <lane id=":42430314_0_2" index="2" disallow="tram rail_urban rail rail_electric rail_fast ship" speed="11.18" length="0.27" shape="988.83,1389.24 988.99,1389.55"/>
    </edge>
    <edge id=":42430317_0" function="internal">
        <lane id=":42430317_0_0" index="0" disallow="tram rail_urban rail rail_electric rail_fast ship" speed="11.18" length="0.30" shape="1031.85,1455.18 1031.98,1455.43"/>
        <lane id=":42430317_0_1" index="1" disallow="tram rail_urban rail rail_electric rail_fast ship" speed="11.18" length="0.30" shape="1029.03,1456.71 1029.18,1456.97"/>
        <lane id=":42430317_0_2" index="2" disallow="tram rail_urban rail rail_electric rail_fast ship" speed="11.18" length="0.30" shape="1026.22,1458.23 1026.37,1458.51"/>
    </edge>
    <edge id=":42430320_0" function="internal">
        <lane id=":42430320_0_0" index="0" disallow="tram rail_urban rail rail_electric rail_fast ship" speed="11.18" length="0.29" shape="1069.79,1524.22 1069.95,1524.51"/>
        <lane id=":42430320_0_1" index="1" disallow="tram rail_urban rail rail_electric rail_fast ship" speed="11.18" length="0.29" shape="1066.99,1525.76 1067.13,1526.02"/>
        <lane id=":42430320_0_2" index="2" disallow="tram rail_urban rail rail_electric rail_fast ship" speed="11.18" length="0.29" shape="1064.19,1527.30 1064.30,1527.52"/>
    </edge>
    <edge id=":42434946_0" function="internal">
        <lane id=":42434946_0_0" index="0" disallow="tram rail_urban rail rail_electric rail_fast ship" speed="6.51" length="9.04" shape="1193.85,1106.70 1192.37,1104.71 1190.62,1103.67 1188.57,1103.58 1186.25,1104.44"/>
    </edge>
    <edge id=":42434946_1" function="internal">
        <lane id=":42434946_1_0" index="0" disallow="tram rail_urban rail rail_electric rail_fast ship" speed="11.18" length="11.21" shape="1193.85,1106.70 1188.49,1096.86"/>
    </edge>
    <edge id=":42434946_2" function="internal">
        <lane id=":42434946_2_0" index="0" disallow="tram rail_urban rail rail_electric rail_fast ship" speed="13.89" length="11.21" shape="1196.12,1099.13 1186.25,1104.44"/>
    </edge>
    <edge id=":42434946_3" function="internal">
        <lane id=":42434946_3_0" index="0" disallow="tram rail_urban rail rail_electric rail_fast ship" speed="6.54" length="9.06" shape="1196.12,1099.13 1193.79,1099.98 1191.74,1099.89 1189.98,1098.85 1188.49,1096.86"/>
    </edge>
    <edge id=":42434948_0" function="internal">
        <lane id=":42434948_0_0" index="0" disallow="tram rail_urban rail rail_electric rail_fast ship" speed="13.89" length="0.10" shape="1327.37,1028.97 1327.37,1028.97"/>
    </edge>
    <edge id=":42434951_0" function="internal">
        <lane id=":42434951_0_0" index="0" disallow="tram rail_urban rail rail_electric rail_fast ship" speed="13.89" length="0.30" shape="1472.94,951.12 1472.68,951.26"/>
    </edge>
    <edge id=":42435422_0" function="internal">
        <lane id=":42435422_0_0" index="0" disallow="tram rail_urban rail rail_electric rail_fast ship" speed="11.18" length="0.30" shape="521.85,1093.87 521.59,1094.02"/>
    </edge>
    <edge id=":42437644_0" function="internal">
        <lane id=":42437644_0_0" index="0" disallow="tram rail_urban rail rail_electric rail_fast ship" speed="6.47" length="8.54" shape="1156.66,1038.73 1155.57,1037.62 1153.90,1037.25 1151.67,1037.62 1148.86,1038.72"/>
    </edge>
    <edge id=":42437644_1" function="internal">
        <lane id=":42437644_1_0" index="0" disallow="tram rail_urban rail rail_electric rail_fast ship" speed="11.18" length="22.89" shape="1156.66,1038.73 1145.41,1018.79"/>
    </edge>
    <edge id=":42437644_2" function="internal">
        <lane id=":42437644_2_0" index="0" disallow="tram rail_urban rail rail_electric rail_fast ship" speed="8.89" length="18.75" shape="1156.66,1038.73 1153.64,1032.34 1152.34,1027.39 1152.76,1023.86 1154.92,1021.76"/>
    </edge>
    <edge id=":42437644_3" function="internal">
        <lane id=":42437644_3_0" index="0" disallow="tram rail_urban rail rail_electric rail_fast ship" speed="8.18" length="15.71" shape="1156.66,1038.73 1154.30,1033.58 1153.44,1029.52 1154.09,1026.55 1156.25,1024.67"/>
    </edge>
    <edge id=":42437644_4" function="internal">
        <lane id=":42437644_4_0" index="0" disallow="tram rail_urban rail rail_electric rail_fast ship" speed="11.18" length="12.61" shape="1160.25,1033.40 1148.86,1038.72"/>
        <lane id=":42437644_4_1" index="1" disallow="tram rail_urban rail rail_electric rail_fast ship" speed="11.18" length="12.61" shape="1158.92,1030.49 1147.49,1035.83"/>
        <lane id=":42437644_4_2" index="2" disallow="tram rail_urban rail rail_electric rail_fast ship" speed="11.18" length="12.61" shape="1157.58,1027.58 1146.11,1032.94"/>
    </edge>
    <edge id=":42437644_7" function="internal">
        <lane id=":42437644_7_0" index="0" disallow="tram rail_urban rail rail_electric rail_fast ship" speed="8.85" length="3.89" shape="1157.58,1027.58 1154.73,1027.99 1153.81,1027.58"/>
    </edge>
    <edge id=":42437644_12" function="internal">
        <lane id=":42437644_12_0" index="0" disallow="tram rail_urban rail rail_electric rail_fast ship" speed="8.85" length="12.41" shape="1153.81,1027.58 1151.75,1026.66 1148.65,1023.59 1145.41,1018.79"/>
    </edge>
    <edge id=":42437644_8" function="internal">
        <lane id=":42437644_8_0" index="0" disallow="tram rail_urban rail rail_electric rail_fast ship" speed="5.79" length="7.37" shape="1141.99,1024.27 1144.14,1023.00 1145.43,1021.67 1145.86,1020.26 1145.41,1018.79"/>
    </edge>
    <edge id=":42437644_9" function="internal">
        <lane id=":42437644_9_0" index="0" disallow="tram rail_urban rail rail_electric rail_fast ship" speed="11.18" length="12.76" shape="1141.99,1024.27 1153.59,1018.85"/>
        <lane id=":42437644_9_1" index="1" disallow="tram rail_urban rail rail_electric rail_fast ship" speed="11.18" length="12.76" shape="1143.36,1027.16 1154.92,1021.76"/>
        <lane id=":42437644_9_2" index="2" disallow="tram rail_urban rail rail_electric rail_fast ship" speed="11.18" length="12.76" shape="1144.74,1030.05 1156.25,1024.67"/>
    </edge>
    <edge id=":42439440_0" function="internal">
        <lane id=":42439440_0_0" index="0" disallow="tram rail_urban rail rail_electric rail_fast ship" speed="3.90" length="2.58" shape="559.11,1162.95 558.86,1162.28 558.89,1161.70 559.19,1161.20 559.76,1160.77"/>
    </edge>
    <edge id=":42439952_0" function="internal">
        <lane id=":42439952_0_0" index="0" disallow="tram rail_urban rail rail_electric rail_fast ship" speed="13.89" length="0.30" shape="676.61,1379.63 676.35,1379.77"/>
    </edge>
    <edge id=":42445903_0" function="internal">
        <lane id=":42445903_0_0" index="0" disallow="tram rail_urban rail rail_electric rail_fast ship" speed="11.18" length="0.10" shape="1247.31,880.15 1247.31,880.15"/>
    </edge>
    <edge id=":42446701_0" function="internal">
        <lane id=":42446701_0_0" index="0" disallow="tram rail_urban rail rail_electric rail_fast ship" speed="6.48" length="9.03" shape="1113.61,958.28 1112.16,956.27 1110.42,955.21 1108.38,955.12 1106.06,955.98"/>
    </edge>
    <edge id=":42446701_1" function="internal">
        <lane id=":42446701_1_0" index="0" disallow="tram rail_urban rail rail_electric rail_fast ship" speed="11.18" length="11.23" shape="1113.61,958.28 1108.31,948.38"/>
    </edge>
    <edge id=":42446701_2" function="internal">
        <lane id=":42446701_2_0" index="0" disallow="tram rail_urban rail rail_electric rail_fast ship" speed="11.18" length="11.21" shape="1115.92,950.66 1106.06,955.98"/>
    </edge>
    <edge id=":42446701_3" function="internal">
        <lane id=":42446701_3_0" index="0" disallow="tram rail_urban rail rail_electric rail_fast ship" speed="6.53" length="9.04" shape="1115.92,950.66 1113.60,951.51 1111.56,951.41 1109.80,950.37 1108.31,948.38"/>
    </edge>
    <edge id=":42452973_0" function="internal">
        <lane id=":42452973_0_0" index="0" disallow="tram rail_urban rail rail_electric rail_fast ship" speed="3.90" length="2.58" shape="1227.39,1172.03 1227.96,1171.61 1228.25,1171.11 1228.28,1170.53 1228.03,1169.86"/>
    </edge>