<configuration> 

<input> 
<net-file value="manhattan.net.xml"/> 
<route-files value="manhattan.rou.xml"/> 
</input> 
<time> 
<begin value="0"/> 
<end value="2000"/> 
</time> 

</configuration> 
