<?xml version="1.0" encoding="UTF-8"?>
<!-- generated on 2021-03-30 18:55:39.433624 by $Id$ v1_8_0+0044-4820708f3d
  options: -n manhattan.net.xml -r manhattan.rou.xml -e 50 -l
-->
<routes xmlns:xsi="http://www.w3.org/2001/XMLSchema-instance" xsi:noNamespaceSchemaLocation="http://sumo.dlr.de/xsd/routes_file.xsd">
    <trip id="0" depart="0.00" from="492489884" to="-496982023#0"/>
    <trip id="1" depart="1.00" from="46469731#0" to="415849235#2"/>
    <trip id="2" depart="2.00" from="496982023#3" to="492489893#1"/>
    <trip id="3" depart="3.00" from="5671442#0" to="-5670600#1"/>
    <trip id="4" depart="4.00" from="46520833#1" to="-496982023#0"/>
    <trip id="5" depart="5.00" from="464515259#0" to="46522006#0"/>
    <trip id="6" depart="6.00" from="-5670600#1" to="415849235#2"/>
    <trip id="7" depart="7.00" from="492489893#1" to="484170269#0"/>
    <trip id="8" depart="8.00" from="464515259#1" to="489019752#1"/>
    <trip id="9" depart="9.00" from="5670600#1" to="-420904659#0"/>
    <trip id="10" depart="10.00" from="5670600#1" to="496982023#2"/>
    <trip id="11" depart="11.00" from="46469731#3" to="384649120#2"/>
    <trip id="12" depart="12.00" from="5673561#4" to="464515259#3"/>
    <trip id="13" depart="13.00" from="384649120#0" to="-5670600#1"/>
    <trip id="14" depart="14.00" from="5670600#1" to="489019752#2"/>
    <trip id="15" depart="15.00" from="5670600#1" to="496983399#0"/>
    <trip id="16" depart="16.00" from="484170269#0" to="587038081#1"/>
    <trip id="17" depart="17.00" from="46490538#0" to="484170269#0"/>
    <trip id="18" depart="18.00" from="5670600#1" to="489019752#3"/>
    <trip id="19" depart="19.00" from="5670803#1" to="484170269#0"/>
    <trip id="20" depart="20.00" from="496982023#0" to="-496982023#2"/>
    <trip id="21" depart="21.00" from="464515259#1" to="464515259#1"/>
    <trip id="22" depart="22.00" from="195743343#1" to="439933932#1"/>
    <trip id="23" depart="23.00" from="384649120#1" to="464515259#0"/>
    <trip id="24" depart="24.00" from="492489884" to="464515259#3"/>
    <trip id="25" depart="25.00" from="46490538#0" to="415849235#2"/>
    <trip id="26" depart="26.00" from="46469731#0" to="5673561#5"/>
    <trip id="27" depart="27.00" from="492489893#1" to="489019752#3"/>
    <trip id="28" depart="28.00" from="439933932#1" to="496983399#0"/>
    <trip id="29" depart="29.00" from="439933932#1" to="46469731#2"/>
    <trip id="30" depart="30.00" from="693345069#1" to="492489884"/>
    <trip id="31" depart="31.00" from="484170269#0" to="492489893#2"/>
    <trip id="32" depart="32.00" from="5670600#1" to="5670600#1"/>
    <trip id="33" depart="33.00" from="464515259#1" to="-496982023#0"/>
    <trip id="34" depart="34.00" from="46469731#2" to="460606347#1"/>
    <trip id="35" depart="35.00" from="460606348#1" to="5673561#5"/>
    <trip id="36" depart="36.00" from="5671442#0" to="464515259#2"/>
    <trip id="37" depart="37.00" from="492489893#1" to="46469731#2"/>
    <trip id="38" depart="38.00" from="5671442#0" to="46520833#1"/>
    <trip id="39" depart="39.00" from="46469731#0" to="458166892#0"/>
    <trip id="40" depart="40.00" from="489019752#0" to="460606347#1"/>
    <trip id="41" depart="41.00" from="489019752#1" to="5673561#4"/>
    <trip id="42" depart="42.00" from="46520833#0" to="415849235#2"/>
    <trip id="43" depart="43.00" from="713102051#0" to="46522006#0"/>
    <trip id="44" depart="44.00" from="384649120#0" to="-496982023#2"/>
    <trip id="45" depart="45.00" from="384649120#2" to="489019752#4"/>
    <trip id="46" depart="46.00" from="496983399#1" to="46469731#3"/>
    <trip id="47" depart="47.00" from="-5670600#1" to="46469731#2"/>
    <trip id="48" depart="48.00" from="713102051#0" to="46522006#1"/>
    <trip id="49" depart="49.00" from="68668519#0" to="5671442#0"/>
</routes>
